/*--------------------------------*- C++ -*----------------------------------*\
  =========                 |
  \\      /  F ield         | OpenFOAM: The Open Source CFD Toolbox
   \\    /   O peration     | Website:  https://openfoam.org
    \\  /    A nd           | Version:  7
     \\/     M anipulation  |
\*---------------------------------------------------------------------------*/
FoamFile
{
    version     2.0;
    format      ascii;
    class       dictionary;
    object      blockMeshDict;
}
// * * * * * * * * * * * * * * * * * * * * * * * * * * * * * * * * * * * * * //

convertToMeters 1.0;

vertices
(
    (0 0 0)
    (1 0 0)
    (1 1 0)
    (0 1 0)
    (0 0 0.1)
    (1 0 0.1)
    (1 1 0.1)
    (0 1 0.1)
    (2 0 0)
    (2 1 0)
    (2 0 0.1)
    (2 1 0.1)

);

blocks
(
    hex (0 1 2 3  4  5  6  7) air (60 60 1) simpleGrading (1 1 1)
    hex (1 8 9 2 5 10 11 6) solid (60 60 1) simpleGrading (1 1 1)
);

edges
(
);

boundary
(
    topWall
    {
        type wall;
        faces
        (
            (3 7 6 2)
            (2 6 11 9)
        );
    }
    leftWall
    {
        type wall;
        faces
        (
            (0 4 7 3)
        );
    }
    rightWall
    {
        type wall;
        faces
        (
            (9 11 10 8)
        );
    }
    bottomWall
    {
        type wall;
        faces
        (
            (1 5 4 0)
            (8 10 5 1)
        );
    }
    frontAndBack
    {
        type empty;
        faces
        (
            (0 3 2 1)
            (1 2 9 8)
            (4 5 6 7)
            (5 10 11 6)
        );
    }
);

mergePatchPairs
(
);

// ************************************************************************* //
