/*--------------------------------*- C++ -*----------------------------------*\
  =========                 |
  \\      /  F ield         | OpenFOAM: The Open Source CFD Toolbox
   \\    /   O peration     | Website:  https://openfoam.org
    \\  /    A nd           | Version:  7
     \\/     M anipulation  |
\*---------------------------------------------------------------------------*/
FoamFile
{
    version     2.0;
    format      ascii;
    class       dictionary;
    location    "constant";
    object      physicalProperties;
}
// * * * * * * * * * * * * * * * * * * * * * * * * * * * * * * * * * * * * * //

erD                 2.9;

epsilon0            8.85419e-12;

e                   1.60217663e-19;

kB                  1.380649e-23;

De                  1.7;

Di                  2.3e-6;

mue                 1.7;

mup                 2.3e-4;

mun                 2.3e-4;

r                   1.0e-13;

rnp                 1.7e-13;

rep                 2.0e-13;

alpha               1550.0;

press               760.0;

Tamb                300.0;

Te                  10000.0;


// ************************************************************************* //
