/*--------------------------------*- C++ -*----------------------------------*\
  =========                 |
  \\      /  F ield         | OpenFOAM: The Open Source CFD Toolbox
   \\    /   O peration     | Website:  https://openfoam.org
    \\  /    A nd           | Version:  7
     \\/     M anipulation  |
\*---------------------------------------------------------------------------*/
FoamFile
{
    version     2.0;
    format      ascii;
    class       polyBoundaryMesh;
    location    "constant/polyMesh";
    object      boundary;
}
// * * * * * * * * * * * * * * * * * * * * * * * * * * * * * * * * * * * * * //

6
(
    upperBoundary
    {
        type            patch;
        nFaces          400;
        startFace       119450;
    }
    leftBoundary
    {
        type            patch;
        nFaces          150;
        startFace       119850;
    }
    rightBoundary
    {
        type            patch;
        nFaces          150;
        startFace       120000;
    }
    frontAndBack
    {
        type            empty;
        inGroups        List<word> 1(empty);
        nFaces          120000;
        startFace       120150;
    }
    highVoltage
    {
        type            wall;
        inGroups        List<word> 
2
(
wall
HVelectrodeBaffle
)
;
        nFaces          100;
        startFace       240150;
    }
    region0_to_dielectric
    {
        type            mappedWall;
        inGroups        List<word> 1(wall);
        nFaces          300;
        startFace       240250;
        sampleMode      nearestPatchFace;
        sampleRegion    dielectric;
        samplePatch     dielectric_to_region0;
    }
)

// ************************************************************************* //
