/*--------------------------------*- C++ -*----------------------------------*\
| =========                 |                                                 |
| \\      /  F ield         | OpenFOAM: The Open Source CFD Toolbox           |
|  \\    /   O peration     | Version:  v2406                                 |
|   \\  /    A nd           | Website:  www.openfoam.com                      |
|    \\/     M anipulation  |                                                 |
\*---------------------------------------------------------------------------*/
FoamFile
{
    version         2;
    format          ascii;
    class           dictionary;
    object          controlDict;
}
// * * * * * * * * * * * * * * * * * * * * * * * * * * * * * * * * * * * * * //

#include        "../../inputData"

application     actuatorACDBDIonicFoam;

startFrom       startTime;

startTime       0;

stopAt          endTime;

endTime         $Tp;

deltaT          1e-09;

writeControl    adjustableRunTime;

writeInterval   0.001;

purgeWrite      0;

writeFormat     ascii;

writePrecision  10;

writeCompression off;

timeFormat      general;

timePrecision   6;

runTimeModifiable true;

adjustTimeStep  yes;

maxCo           0.6;

maxDeltaT       1;

writeCustomTime true;

printScreenResults 1;

maxRegionLoopsIndEqn 10;

maxRegionLoopsExtEqn 30000;

numWriteTimes   5;

P               0.1;

Q               5;

functions
{    
    #include "probes"
    
    fieldAverage1
    {
        type            fieldAverage;
        libs            (fieldFunctionObjects);
        writeControl    writeTime;
        fields          ( Fc { mean on ; prime2Mean off ; base time ; } );
        log             false;
    }
}


// ************************************************************************* //
