#!/bin/bash

#------------------------------------------------------------------------------ 
# Specify the times of each period that the force will act
#------------------------------------------------------------------------------ 
find ../chargeTransport -maxdepth 1 -type d ! '(' -name 'constant' -o -name 'system' -o -name '0.org' -o -name 'processor*' -o -name 'dynamicCode' -o -name 'probes' -o -name 'postProcessing' ')' > forceTimesText
sed -i 's/..\/chargeTransport\///g' ./forceTimesText
sed -i '1d' ./forceTimesText
LC_ALL=C sort -g -o forceTimesText forceTimesText

cat > ./constant/forceDict << EOF
/*--------------------------------*- C++ -*----------------------------------*\
  =========                 |
  \\      /  F ield         | OpenFOAM: The Open Source CFD Toolbox
   \\    /   O peration     | Website:  https://openfoam.org
    \\  /    A nd           | Version:  7
     \\/     M anipulation  |
\*---------------------------------------------------------------------------*/
FoamFile
{
    version     2.0;
    format      ascii;
    class       dictionary;
    location    "constant";
    object      forceDict;
}
// * * * * * * * * * * * * * * * * * * * * * * * * * * * * * * * * * * * * * //

forceTimes
(
EOF

cat forceTimesText >> ./constant/forceDict
echo ");" >> ./constant/forceDict


#------------------------------------------------------------------------------ 
# Specify the names of the forces
#------------------------------------------------------------------------------ 
# Create an array with the values of the times
declare -a times
while read -r line;
do
  times+=("$(echo "$line")")
done<forceTimesText

# Specify the number of the time forces
forceNum=${#times[@]}-1

# Create a string array with the forces names
declare -a forceNames
for ((i = 0; i <forceNum ; i++))
do
  forceNames+=("Fc$i")
done

# Write the forces names in the forcesDict
cat >> ./constant/forceDict << EOF

forceNames
(
EOF
printf "%s\n" "${forceNames[@]}" >> ./constant/forceDict   # Write vertically
# echo "${forceNames[@]}" >> ./constant/forceDict          # Write horizontally
echo ");" >> ./constant/forceDict


#------------------------------------------------------------------------------ 
# Map Fields the forces of each time
#------------------------------------------------------------------------------ 
# Convert the 0 directory into 0.org
mv 0 0.org

# MapFields all times except last (i.e. the force at the end of the oscillation period)
count=0
for i in ${times[@]::${#times[@]}-1}
do
  echo
  echo "Map Fields for force No" $((count+1)) "of" ${#times[@]}
  echo
  mapFieldsPar ../chargeTransport/ -mapMethod direct -consistent -fields '(Fc)' -sourceTime $i 
  mv 0/Fc 0.org/Fc$count
  let count++
done

# Replace 0 directory with 0.org and delete text files
rm -v -r 0
mv -v 0.org 0
#rm forceTimesText





#------------------------------------------------------------------------------ 
