/*--------------------------------*- C++ -*----------------------------------*\
| =========                 |                                                 |
| \\      /  F ield         | OpenFOAM: The Open Source CFD Toolbox           |
|  \\    /   O peration     | Version:  2406                                  |
|   \\  /    A nd           | Website:  www.openfoam.com                      |
|    \\/     M anipulation  |                                                 |
\*---------------------------------------------------------------------------*/
FoamFile
{
    version     2.0;
    format      ascii;
    arch        "LSB;label=32;scalar=64";
    class       polyBoundaryMesh;
    location    "constant/insulator/polyMesh";
    object      boundary;
}
// * * * * * * * * * * * * * * * * * * * * * * * * * * * * * * * * * * * * * //

6
(
    leftBoundary
    {
        type            wall;
        inGroups        1(wall);
        nFaces          78;
        startFace       196530;
    }
    rightBoundary
    {
        type            wall;
        inGroups        1(wall);
        nFaces          78;
        startFace       196608;
    }
    ground
    {
        type            wall;
        inGroups        1(wall);
        nFaces          651;
        startFace       196686;
    }
    bottomBoundary
    {
        type            wall;
        inGroups        1(wall);
        nFaces          976;
        startFace       197337;
    }
    frontAndBack
    {
        type            empty;
        inGroups        1(empty);
        nFaces          197564;
        startFace       198313;
    }
    insulator_to_dielectric
    {
        type            mappedWall;
        inGroups        1(wall);
        nFaces          1020;
        startFace       395877;
        sampleMode      nearestPatchFace;
        sampleRegion    dielectric;
        samplePatch     dielectric_to_insulator;
    }
)

// ************************************************************************* //
