/*--------------------------------*- C++ -*----------------------------------*\
  =========                 |
  \\      /  F ield         | OpenFOAM: The Open Source CFD Toolbox
   \\    /   O peration     | Website:  https://openfoam.org
    \\  /    A nd           | Version:  7  
     \\/     M anipulation  |
\*---------------------------------------------------------------------------*/
FoamFile
{
    version     2.0;
    format      ascii;
    class       volScalarField;
    object      k_Diel;
}
// * * * * * * * * * * * * * * * * * * * * * * * * * * * * * * * * * * * * * //

dimensions      [0 0 0 0 0 0 0];

internalField   uniform 2.1;

boundaryField
{
    LeftWall
    {
        type            fixedValue;
	    value		    uniform 2.1;
    }

    RightWall
    {
        type            fixedValue;
	    value		    uniform 2.1;
    }
    DownWall
    {
        type            fixedValue;
	    value		    uniform 2.1;
    }
    Dielectric_to_Air
    {
        type            fixedValue;
	    value		    uniform 2.1;
    }
    anode
    {
        type            fixedValue;
	    value		    uniform 2.1;
    }
    cathode
    {
        type            fixedValue;
	    value		    uniform 2.1;
    }
    frontAndBack
    {
        type            empty;
    }
}

// ************************************************************************* //
