/*--------------------------------*- C++ -*----------------------------------*\
  =========                 |
  \\      /  F ield         | OpenFOAM: The Open Source CFD Toolbox
   \\    /   O peration     | Website:  https://openfoam.org
    \\  /    A nd           | Version:  6
     \\/     M anipulation  |
\*---------------------------------------------------------------------------*/
FoamFile
{
    version     2.0;
    format      ascii;
    class       dictionary;
    object      topoSetDict;
}

// * * * * * * * * * * * * * * * * * * * * * * * * * * * * * * * * * * * * * //

actions
(
    // // Streamer head
    // {
    //     name    streamerHeadSet;
    //     type    faceSet;
    //     action  new;
    //     source  cylinderToFace;
    //     sourceInfo
    //     {
    //         p1 (0.00025 0.00025 -1.0);
    //         p2 (0.00025 0.00025  1.0);
    //         radius 0.00020;
    //     }
    // }
    // {
    //     name    streamerHeadZone;
    //     type    faceZoneSet;
    //     action  new;
    //     source  setToFaceZone;
    //     sourceInfo { faceSet streamerHeadSet; }
    // }

);



// ************************************************************************* //
