/*--------------------------------*- C++ -*----------------------------------*\
  =========                 |
  \\      /  F ield         | OpenFOAM: The Open Source CFD Toolbox
   \\    /   O peration     | Website:  https://openfoam.org
    \\  /    A nd           | Version:  7
     \\/     M anipulation  |
\*---------------------------------------------------------------------------*/
FoamFile
{
    version     2.0;
    format      ascii;
    class       polyBoundaryMesh;
    location    "constant/dielectric/polyMesh";
    object      boundary;
}
// * * * * * * * * * * * * * * * * * * * * * * * * * * * * * * * * * * * * * //

7
(
    leftBoundary
    {
        type            wall;
        inGroups        List<word> 1(wall);
        nFaces          14;
        startFace       352733;
    }
    rightBoundary
    {
        type            wall;
        inGroups        List<word> 1(wall);
        nFaces          14;
        startFace       352747;
    }
    highVoltage
    {
        type            wall;
        inGroups        List<word> 1(wall);
        nFaces          480;
        startFace       352761;
    }
    ground
    {
        type            wall;
        inGroups        List<word> 1(wall);
        nFaces          1436;
        startFace       353241;
    }
    frontAndBack
    {
        type            empty;
        inGroups        List<word> 1(empty);
        nFaces          356580;
        startFace       354677;
    }
    dielectric_to_insulator
    {
        type            mappedWall;
        inGroups        List<word> 1(wall);
        nFaces          2439;
        startFace       711257;
        sampleMode      nearestPatchFace;
        sampleRegion    insulator;
        samplePatch     insulator_to_dielectric;
    }
    dielectric_to_region0
    {
        type            mappedWall;
        inGroups        List<word> 1(wall);
        nFaces          3395;
        startFace       713696;
        sampleMode      nearestPatchFace;
        sampleRegion    region0;
        samplePatch     region0_to_dielectric;
    }
)

// ************************************************************************* //
