/*--------------------------------*- C++ -*----------------------------------*\
  =========                 |
  \\      /  F ield         | OpenFOAM: The Open Source CFD Toolbox
   \\    /   O peration     | Website:  https://openfoam.org
    \\  /    A nd           | Version:  7
     \\/     M anipulation  |
\*---------------------------------------------------------------------------*/
FoamFile
{
    version     2.0;
    format      ascii;
    class       polyBoundaryMesh;
    location    "constant/dielectric/polyMesh";
    object      boundary;
}
// * * * * * * * * * * * * * * * * * * * * * * * * * * * * * * * * * * * * * //

7
(
    leftBoundary
    {
        type            wall;
        inGroups        List<word> 1(wall);
        nFaces          14;
        startFace       274736;
    }
    rightBoundary
    {
        type            wall;
        inGroups        List<word> 1(wall);
        nFaces          14;
        startFace       274750;
    }
    highVoltage
    {
        type            wall;
        inGroups        List<word> 1(wall);
        nFaces          380;
        startFace       274764;
    }
    ground
    {
        type            wall;
        inGroups        List<word> 1(wall);
        nFaces          1140;
        startFace       275144;
    }
    frontAndBack
    {
        type            empty;
        inGroups        List<word> 1(empty);
        nFaces          278656;
        startFace       276284;
    }
    dielectric_to_insulator
    {
        type            mappedWall;
        inGroups        List<word> 1(wall);
        nFaces          2808;
        startFace       554940;
        sampleMode      nearestPatchFace;
        sampleRegion    insulator;
        samplePatch     insulator_to_dielectric;
    }
    dielectric_to_region0
    {
        type            mappedWall;
        inGroups        List<word> 1(wall);
        nFaces          3568;
        startFace       557748;
        sampleMode      nearestPatchFace;
        sampleRegion    region0;
        samplePatch     region0_to_dielectric;
    }
)

// ************************************************************************* //
