/*--------------------------------*- C++ -*----------------------------------*\
| =========                 |                                                 |
| \\      /  F ield         | OpenFOAM: The Open Source CFD Toolbox           |
|  \\    /   O peration     | Version:  2.1.x                                 |
|   \\  /    A nd           | Web:      www.OpenFOAM.org                      |
|    \\/     M anipulation  |                                                 |
\*---------------------------------------------------------------------------*/
FoamFile
{
    version     2.0;
    format      ascii;
    class       dictionary;
    object      changeDictionaryDict;
}
// * * * * * * * * * * * * * * * * * * * * * * * * * * * * * * * * * * * * * //


phiEl
{
    boundaryField
    {

    anode
        {
            type            fixedValue;
            value           uniform 20000;
        }
    Air_to_Dielectric
    	{
        type            compressible::turbulentTemperatureCoupledBaffleMixed;
        value           $internalField;
        Tnbr            phiElDiel;
        kappaMethod     lookup;
        kappa		k_Air;
    	}

    }
}





// ************************************************************************* //
