/*--------------------------------*- C++ -*----------------------------------*\
| =========                 |                                                 |
| \\      /  F ield         | OpenFOAM: The Open Source CFD Toolbox           |
|  \\    /   O peration     | Version:  v2406                                 |
|   \\  /    A nd           | Website:  www.openfoam.com                      |
|    \\/     M anipulation  |                                                 |
\*---------------------------------------------------------------------------*/
FoamFile
{
    version     2.0;
    format      ascii;
    class       dictionary;
    object      fvSolution;
}
// * * * * * * * * * * * * * * * * * * * * * * * * * * * * * * * * * * * * * //

solvers
{
    voltArho
    {
        solver          PCG;
        preconditioner  DIC;
        tolerance       1e-08;
        relTol          0.05;
    }
    
    voltDrho
    {
        solver          PCG;
        preconditioner  DIC;
        tolerance       1e-08;
        relTol          0.05;
    }

    voltErho
    {
        solver          PCG;
        preconditioner  DIC;
        tolerance       1e-08;
        relTol          0.05;
    }

    rhoq
    {
        solver          smoothSolver;
        smoother        symGaussSeidel;
        tolerance       1e-15;
        relTol          0.05;
        // maxIter         0;      // This line suppresses the charge transport equation
    }
}


// ************************************************************************* //
