/*--------------------------------*- C++ -*----------------------------------*\
  =========                 |
  \\      /  F ield         | OpenFOAM: The Open Source CFD Toolbox
   \\    /   O peration     | Website:  https://openfoam.org
    \\  /    A nd           | Version:  7
     \\/     M anipulation  |
\*---------------------------------------------------------------------------*/
FoamFile
{
    version     2.0;
    format      ascii;
    class       polyBoundaryMesh;
    location    "constant/dielectric/polyMesh";
    object      boundary;
}
// * * * * * * * * * * * * * * * * * * * * * * * * * * * * * * * * * * * * * //

7
(
    leftBoundary
    {
        type            patch;
        nFaces          50;
        startFace       9949;
    }
    rightBoundary
    {
        type            patch;
        nFaces          0;
        startFace       9999;
    }
    ground
    {
        type            wall;
        inGroups        List<word> 1(wall);
        nFaces          101;
        startFace       9999;
    }
    frontAndBack
    {
        type            empty;
        inGroups        List<word> 1(empty);
        nFaces          10100;
        startFace       10100;
    }
    highVoltage
    {
        type            wall;
        inGroups        List<word> 
2
(
wall
HVelectrodeBaffle
)
;
        nFaces          100;
        startFace       20200;
    }
    dielectric_to_region0
    {
        type            mappedWall;
        inGroups        List<word> 
2
(
wall
mappedPatch
)
;
        nFaces          1;
        startFace       20300;
        sampleMode      nearestPatchFace;
        sampleRegion    region0;
        samplePatch     region0_to_dielectric;
    }
    procBoundary2to3
    {
        type            processor;
        inGroups        List<word> 1(processor);
        nFaces          50;
        startFace       20301;
        matchTolerance  0.0001;
        transform       unknown;
        myProcNo        2;
        neighbProcNo    3;
    }
)

// ************************************************************************* //
