/*--------------------------------*- C++ -*----------------------------------*\
  =========                 |
  \\      /  F ield         | OpenFOAM: The Open Source CFD Toolbox
   \\    /   O peration     | Website:  https://openfoam.org
    \\  /    A nd           | Version:  7
     \\/     M anipulation  |
\*---------------------------------------------------------------------------*/
FoamFile
{
    version     2.0;
    format      ascii;
    class       volScalarField;
    location    "0/Air";
    object      rhoq;
}
// * * * * * * * * * * * * * * * * * * * * * * * * * * * * * * * * * * * * * //

dimensions      [ 0 -3 1 0 0 1 0];

internalField   uniform 0;

boundaryField
{
    UpWall
    {
        type            zeroGradient;
    }
    LeftWall
    {
        type            zeroGradient;
    }
    RightWall
    {
        type            zeroGradient;
    }
    frontAndBack
    {
        type            empty;
    }
    anode
    {
        type            fixedValue;
        value           uniform 1.0e-03;
    }
    Air_to_Dielectric
    {
        type            zeroGradient;
    }
}


// ************************************************************************* //
