/*--------------------------------*- C++ -*----------------------------------*\
  =========                 |
  \\      /  F ield         | OpenFOAM: The Open Source CFD Toolbox
   \\    /   O peration     | Website:  https://openfoam.org
    \\  /    A nd           | Version:  7
     \\/     M anipulation  |
\*---------------------------------------------------------------------------*/
FoamFile
{
    version     2.0;
    format      ascii;
    class       polyBoundaryMesh;
    location    "constant/polyMesh";
    object      boundary;
}
// * * * * * * * * * * * * * * * * * * * * * * * * * * * * * * * * * * * * * //

6
(
    upperBoundary
    {
        type            wall;
        inGroups        List<word> 1(wall);
        nFaces          477;
        startFace       115399;
    }
    leftBoundary
    {
        type            wall;
        inGroups        List<word> 1(wall);
        nFaces          122;
        startFace       115876;
    }
    rightBoundary
    {
        type            wall;
        inGroups        List<word> 1(wall);
        nFaces          122;
        startFace       115998;
    }
    highVoltage
    {
        type            wall;
        inGroups        List<word> 1(wall);
        nFaces          44;
        startFace       116120;
    }
    frontAndBack
    {
        type            empty;
        inGroups        List<word> 1(empty);
        nFaces          116004;
        startFace       116164;
    }
    region0_to_dielectric
    {
        type            mappedWall;
        inGroups        List<word> 1(wall);
        nFaces          445;
        startFace       232168;
        sampleMode      nearestPatchFace;
        sampleRegion    dielectric;
        samplePatch     dielectric_to_region0;
    }
)

// ************************************************************************* //
