/*--------------------------------*- C++ -*----------------------------------*\
  =========                 |
  \\      /  F ield         | OpenFOAM: The Open Source CFD Toolbox
   \\    /   O peration     | Website:  https://openfoam.org
    \\  /    A nd           | Version:  7  
     \\/     M anipulation  |
\*---------------------------------------------------------------------------*/
FoamFile
{
    version     2.0;
    format      ascii;
    class       volScalarField;
    object      voltD;
}
// * * * * * * * * * * * * * * * * * * * * * * * * * * * * * * * * * * * * * //

dimensions      [1 2 -3 0 0 -1 0];

internalField   uniform 0;

boundaryField
{

    leftBoundary
    {
        type            zeroGradient;
    }

    rightBoundary
    {
        type            zeroGradient;
    }

    bottomBoundary
    {
        type            zeroGradient;
    }

    dielectric_to_region0
    {
        type            compressible::turbulentTemperatureCoupledBaffleMixed;
        value           $internalField;
        Tnbr            voltA;
        kappaMethod     lookup;
        kappa           epsilonD;
    }

    dielectric_to_insulator
    {
        type            compressible::turbulentTemperatureCoupledBaffleMixed;
        value           $internalField;
        Tnbr            voltI;
        kappaMethod     lookup;
        kappa           epsilonD;
    }

    highVoltage
    {
        type            fixedValue;
        value           uniform 10000;
    }

    ground
    {
        type            fixedValue;
        value           uniform 0;
    }

    frontAndBack
    {
        type            empty;
    }

}

// ************************************************************************* //
