/*--------------------------------*- C++ -*----------------------------------*\
  =========                 |
  \\      /  F ield         | OpenFOAM: The Open Source CFD Toolbox
   \\    /   O peration     | Website:  https://openfoam.org
    \\  /    A nd           | Version:  7  
     \\/     M anipulation  |
\*---------------------------------------------------------------------------*/
FoamFile
{
    version     2.0;
    format      ascii;
    class       volScalarField;
    object      voltA;
}
// * * * * * * * * * * * * * * * * * * * * * * * * * * * * * * * * * * * * * //

dimensions      [1 2 -3 0 0 -1 0];

internalField   uniform 0;

boundaryField
{

    upperBoundary
    {
        type            zeroGradient;
    }

    leftBoundary
    {
        type            zeroGradient;
    }

    rightBoundary
    {
        type            zeroGradient;
    }

    highVoltage
    {
        type            uniformFixedValue;
        uniformValue
        {
            type             sine;
            frequency        1.0e+4;
            amplitude        7.0e+3;
            scale            1;  // Scale factor for wave
            level            0;  // Offset
        }
    }

    region0_to_dielectric
    {
        type            compressible::turbulentTemperatureCoupledBaffleMixed;
        value           $internalField;
        Tnbr            voltD;
        kappaMethod     lookup;
        kappa           epsilonA;
    }

    frontAndBack
    {
        type            empty;
    }

}

// ************************************************************************* //
