/*--------------------------------*- C++ -*----------------------------------*\
  =========                 |
  \\      /  F ield         | OpenFOAM: The Open Source CFD Toolbox
   \\    /   O peration     | Website:  https://openfoam.org
    \\  /    A nd           | Version:  7
     \\/     M anipulation  |
\*---------------------------------------------------------------------------*/
FoamFile
{
    version     2.0;
    format      ascii;
    class       polyBoundaryMesh;
    location    "constant/solid/polyMesh";
    object      boundary;
}
// * * * * * * * * * * * * * * * * * * * * * * * * * * * * * * * * * * * * * //

5
(
    topWall
    {
        type            wall;
        inGroups        List<word> 1(wall);
        nFaces          40;
        startFace       3120;
    }
    rightWall
    {
        type            wall;
        inGroups        List<word> 1(wall);
        nFaces          40;
        startFace       3160;
    }
    bottomWall
    {
        type            wall;
        inGroups        List<word> 1(wall);
        nFaces          40;
        startFace       3200;
    }
    frontAndBack
    {
        type            empty;
        inGroups        List<word> 1(empty);
        nFaces          3200;
        startFace       3240;
    }
    solid_to_region0
    {
        type            mappedWall;
        inGroups        List<word> 1(wall);
        nFaces          40;
        startFace       6440;
        sampleMode      nearestPatchFace;
        sampleRegion    region0;
        samplePatch     region0_to_solid;
    }
)

// ************************************************************************* //
