/*--------------------------------*- C++ -*----------------------------------*\
  =========                 |
  \\      /  F ield         | OpenFOAM: The Open Source CFD Toolbox
   \\    /   O peration     | Website:  https://openfoam.org
    \\  /    A nd           | Version:  7  
     \\/     M anipulation  |
\*---------------------------------------------------------------------------*/
FoamFile
{
    version     2.0;
    format      ascii;
    class       volScalarField;
    object      volt;
}
// * * * * * * * * * * * * * * * * * * * * * * * * * * * * * * * * * * * * * //

dimensions      [1 2 -3 0 0 -1 0];

internalField   uniform 0;

boundaryField
{
    leftPlateAir
    {
        type            fixedValue;
        value           uniform 0;
    }

    electrode
    {
        type            fixedValue;
        value           uniform 12000;
    }

    rightPlateAir
    {
        type            fixedValue;
        value           uniform 0;
    }

    airOuter
    {
        type            fixedValue;
        value           uniform 0;
    }

    air_to_dielectric
    {
        type            compressible::turbulentTemperatureCoupledBaffleMixed;
        value           $internalField;
        Tnbr            voltD;
        kappaMethod     lookup;
        kappa		    epsilonI;
    }

}

// ************************************************************************* //
