/*--------------------------------*- C++ -*----------------------------------*\
| =========                 |                                                 |
| \\      /  F ield         | OpenFOAM: The Open Source CFD Toolbox           |
|  \\    /   O peration     | Version:  2406                                  |
|   \\  /    A nd           | Website:  www.openfoam.com                      |
|    \\/     M anipulation  |                                                 |
\*---------------------------------------------------------------------------*/
FoamFile
{
    version     2.0;
    format      ascii;
    arch        "LSB;label=32;scalar=64";
    class       polyBoundaryMesh;
    location    "constant/encapsulator/polyMesh";
    object      boundary;
}
// * * * * * * * * * * * * * * * * * * * * * * * * * * * * * * * * * * * * * //

6
(
    leftBoundary
    {
        type            wall;
        inGroups        1(wall);
        nFaces          61;
        startFace       52097;
    }
    rightBoundary
    {
        type            wall;
        inGroups        1(wall);
        nFaces          61;
        startFace       52158;
    }
    ground
    {
        type            wall;
        inGroups        1(wall);
        nFaces          52;
        startFace       52219;
    }
    bottomBoundary
    {
        type            wall;
        inGroups        1(wall);
        nFaces          434;
        startFace       52271;
    }
    frontAndBack
    {
        type            empty;
        inGroups        1(empty);
        nFaces          52596;
        startFace       52705;
    }
    encapsulator_to_dielectric
    {
        type            mappedWall;
        inGroups        1(wall);
        nFaces          390;
        startFace       105301;
        sampleMode      nearestPatchFace;
        sampleRegion    dielectric;
        samplePatch     dielectric_to_encapsulator;
    }
)

// ************************************************************************* //
