/*--------------------------------*- C++ -*----------------------------------*\
  =========                 |
  \\      /  F ield         | OpenFOAM: The Open Source CFD Toolbox
   \\    /   O peration     | Website:  https://openfoam.org
    \\  /    A nd           | Version:  7  
     \\/     M anipulation  |
\*---------------------------------------------------------------------------*/
FoamFile
{
    version     2.0;
    format      ascii;
    class       volScalarField;
    object      volt;
}
// * * * * * * * * * * * * * * * * * * * * * * * * * * * * * * * * * * * * * //

dimensions      [1 2 -3 0 0 -1 0];

internalField   uniform 0;

boundaryField
{
    leftPlateDiel
    {
        type            fixedValue;
        value           uniform 0;
    }

    dileTube
    {
        type            fixedValue;
        value           uniform 0;
    }

    electrode
    {
        type            fixedValue;
        value           uniform 12000;
    }

    rightPlateDiel
    {
        type            fixedValue;
        value           uniform 0;
    }

    dielectric_to_region0
    {
        type            compressible::turbulentTemperatureCoupledBaffleMixed;
        value           $internalField;
        Tnbr            volt;
        kappaMethod     lookup;
        kappa		    epsilonD;
    }

    dielectric_to_air
    {
        type            compressible::turbulentTemperatureCoupledBaffleMixed;
        value           $internalField;
        Tnbr            voltI;
        kappaMethod     lookup;
        kappa		    epsilonD;
    }

}

// ************************************************************************* //
