/*--------------------------------*- C++ -*----------------------------------*\
| =========                 |                                                 |
| \\      /  F ield         | OpenFOAM: The Open Source CFD Toolbox           |
|  \\    /   O peration     | Version:  v2312                                 |
|   \\  /    A nd           | Website:  www.openfoam.com                      |
|    \\/     M anipulation  |                                                 |
\*---------------------------------------------------------------------------*/
FoamFile
{
    version     2.0;
    format      ascii;
    class       volScalarField;
    object      Ndefault;
}
// * * * * * * * * * * * * * * * * * * * * * * * * * * * * * * * * * * * * * //

dimensions      [0 -3 0 0 0 0 0];

internalField   uniform 0;

boundaryField
{    
    electrode
    {
        type            zeroGradient;
    }

    gasInlet
    {
        type            zeroGradient;
    }

    airInlet
    {
        type            zeroGradient;
    }

    outlet
    {
        type            zeroGradient;
    }

    topBoundary
    {
        type            zeroGradient;
    }

    region0_to_dielectric
    {
        type            zeroGradient;
    }

    axis
    {
        type            empty;
    }

    frontWedge
    {
        type            wedge;
    }

    backWedge
    {
        type            wedge;
    }
}

// ************************************************************************* //
