/*--------------------------------*- C++ -*----------------------------------*\
| =========                 |                                                 |
| \\      /  F ield         | OpenFOAM: The Open Source CFD Toolbox           |
|  \\    /   O peration     | Version:  v2312                                 |
|   \\  /    A nd           | Website:  www.openfoam.com                      |
|    \\/     M anipulation  |                                                 |
\*---------------------------------------------------------------------------*/
FoamFile
{
    version     2.0;
    format      ascii;
    class       dictionary;
    object      controlDict;
}
// * * * * * * * * * * * * * * * * * * * * * * * * * * * * * * * * * * * * * //

application     plasmaChemistryFoam;

startFrom       startTime;

startTime       0;

stopAt          endTime;

endTime         10.0e-6;

deltaT          1e-10;

writeControl    adjustableRunTime;

writeInterval   10e-9;

purgeWrite      0;

writeFormat     ascii;

writePrecision  10;

writeCompression off;

timeFormat      general;

timePrecision   8;

runTimeModifiable true;

adjustTimeStep  true;

maxCo           0.8;

maxRegionLoops  100;

customUpdatePlasmaCoeffs true;

plasmaCoeffsUpdateInterval 10;

printScreenResults 100;

functions
{
    // #include "probes"
}


// ************************************************************************* //

