/*--------------------------------*- C++ -*----------------------------------*\
  =========                 |
  \\      /  F ield         | OpenFOAM: The Open Source CFD Toolbox
   \\    /   O peration     | Website:  https://openfoam.org
    \\  /    A nd           | Version:  7
     \\/     M anipulation  |
\*---------------------------------------------------------------------------*/
FoamFile
{
    version     2.0;
    format      ascii;
    class       volScalarField;
    location    "0";
    object      epsilonA;
}
// * * * * * * * * * * * * * * * * * * * * * * * * * * * * * * * * * * * * * //

dimensions      [0 0 0 0 0 0 0];

internalField   uniform 1;

boundaryField
{
    upperBoundary
    {
        type            calculated;
        value           uniform 1;
    }
    leftBoundary
    {
        type            calculated;
        value           uniform 1;
    }
    rightBoundary
    {
        type            calculated;
        value           uniform 1;
    }
    highVoltage
    {
        type            calculated;
        value           uniform 1;
    }
    frontAndBack
    {
        type            empty;
    }
    region0_to_dielectric
    {
        type            calculated;
        value           uniform 1;
    }
}


// ************************************************************************* //
