/*--------------------------------*- C++ -*----------------------------------*  =========                 |
  \      /  F ield         | OpenFOAM: The Open Source CFD Toolbox
   \    /   O peration     | Website:  https://openfoam.org
    \  /    A nd           | Version:  7
     \/     M anipulation  |
\*---------------------------------------------------------------------------*/
FoamFile
{
    version     2.0;
    format      ascii;
    class       dictionary;
    object      forceDict;
}
// * * * * * * * * * * * * * * * * * * * * * * * * * * * * * * * * * * * * * //

forceTimes
(
0
1e-09
5.919322885e-08
1.865813336e-07
5.008680119e-07
1.247625776e-06
1.300293709e-06
1.347997772e-06
1.443097822e-06
1.78721304e-06
2.50704921e-06
2.531483534e-06
2.555402188e-06
2.601825383e-06
2.730064281e-06
3.039386051e-06
3.766701091e-06
3.781915842e-06
3.796987597e-06
3.811918997e-06
3.826717163e-06
3.890913658e-06
3.986698455e-06
4.312360797e-06
5.047150286e-06
5.05747237e-06
5.067746424e-06
5.077972886e-06
5.088152192e-06
5.098285851e-06
5.108373193e-06
5.15183217e-06
5.272363998e-06
5.59468741e-06
6.319279918e-06
6.326983291e-06
6.334667075e-06
6.342330742e-06
6.349975018e-06
6.357599999e-06
6.365205165e-06
6.372791229e-06
6.380358287e-06
6.430013537e-06
6.542860907e-06
6.869400219e-06
7.595179907e-06
7.601341871e-06
7.607493989e-06
7.613636699e-06
7.619769623e-06
7.625892791e-06
7.632006233e-06
7.638110382e-06
7.644204865e-06
7.650290112e-06
7.656365751e-06
7.702508745e-06
7.818281353e-06
8.142773415e-06
8.865781955e-06
8.870978045e-06
8.876168511e-06
8.881353367e-06
8.886532917e-06
8.891706879e-06
8.896875557e-06
8.90203867e-06
8.907196229e-06
8.912348536e-06
8.917495604e-06
8.922637151e-06
8.927773478e-06
8.932904597e-06
8.982808601e-06
9.09050586e-06
9.417625697e-06
1.014250251e-05
1.014704673e-05
1.015158751e-05
1.015612485e-05
1.016065876e-05
1.016518924e-05
1.016971629e-05
1.017423992e-05
1.017876036e-05
1.01832774e-05
1.018779103e-05
1.019230126e-05
1.019680832e-05
1.020131199e-05
1.020581228e-05
1.025411191e-05
1.03673267e-05
1.069124898e-05
1.141894248e-05
1.142303531e-05
1.142712568e-05
1.143121379e-05
1.143529963e-05
1.143938321e-05
1.144346453e-05
1.14475436e-05
1.145162022e-05
1.14556946e-05
1.145976672e-05
1.14638366e-05
1.146790424e-05
1.147196963e-05
1.147603297e-05
1.148009408e-05
1.15322232e-05
1.164253387e-05
1.196863122e-05
1.269326246e-05
1.269703936e-05
1.270081462e-05
1.270458825e-05
1.270836025e-05
1.271213063e-05
1.271589937e-05
1.271966649e-05
1.272343198e-05
1.272719585e-05
1.273095809e-05
1.273471888e-05
1.273847804e-05
1.274223559e-05
1.274599152e-05
1.274974583e-05
1.275349869e-05
1.275724994e-05
1.280517417e-05
1.2914754e-05
1.324383116e-05
1.396938795e-05
1.397294514e-05
1.3976501e-05
1.398005569e-05
1.398360921e-05
1.398716155e-05
1.399071272e-05
1.399426271e-05
1.399781139e-05
1.40013589e-05
1.400490523e-05
1.40084504e-05
1.40119944e-05
1.401553723e-05
1.401907889e-05
1.402261938e-05
1.402615871e-05
1.402969688e-05
1.403323387e-05
1.408208581e-05
1.41927497e-05
1.451826677e-05
1.524515999e-05
1.524857174e-05
1.525198267e-05
1.525539265e-05
1.525880166e-05
1.526220985e-05
1.526561708e-05
1.526902335e-05
1.527242879e-05
1.527583329e-05
1.527923682e-05
1.528263953e-05
1.528604129e-05
1.528944223e-05
1.529284221e-05
1.529624137e-05
1.529963958e-05
1.530303684e-05
1.530643328e-05
1.535689927e-05
1.546667381e-05
1.57941583e-05
1.651975292e-05
1.652308055e-05
1.652640738e-05
1.652973355e-05
1.653305893e-05
1.653638364e-05
1.653970769e-05
1.654303095e-05
1.654635355e-05
1.654967548e-05
1.655299662e-05
1.65563171e-05
1.655963692e-05
1.656295595e-05
1.656627432e-05
1.656959203e-05
1.657290894e-05
1.65762252e-05
1.65795408e-05
1.658285574e-05
1.663205656e-05
1.674273662e-05
1.707030177e-05
1.779594348e-05
1.779924075e-05
1.780253748e-05
1.780583369e-05
1.780912923e-05
1.781242425e-05
1.781571873e-05
1.781901269e-05
1.782230599e-05
1.782559876e-05
1.782889101e-05
1.783218272e-05
1.783547391e-05
1.783876457e-05
1.784205458e-05
1.784534405e-05
1.7848633e-05
1.785192142e-05
1.785520932e-05
1.785849669e-05
1.837090484e-05
1.894736461e-05
1.962952093e-05
2.046649851e-05
2.153595016e-05
2.295922053e-05
2.489542717e-05
2.756355673e-05
3.124475668e-05
3.626513162e-05
4.281846686e-05
5.108215114e-05
6.081917563e-05
7.140479692e-05
);

forceNames
(
Fc0
Fc1
Fc2
Fc3
Fc4
Fc5
Fc6
Fc7
Fc8
Fc9
Fc10
Fc11
Fc12
Fc13
Fc14
Fc15
Fc16
Fc17
Fc18
Fc19
Fc20
Fc21
Fc22
Fc23
Fc24
Fc25
Fc26
Fc27
Fc28
Fc29
Fc30
Fc31
Fc32
Fc33
Fc34
Fc35
Fc36
Fc37
Fc38
Fc39
Fc40
Fc41
Fc42
Fc43
Fc44
Fc45
Fc46
Fc47
Fc48
Fc49
Fc50
Fc51
Fc52
Fc53
Fc54
Fc55
Fc56
Fc57
Fc58
Fc59
Fc60
Fc61
Fc62
Fc63
Fc64
Fc65
Fc66
Fc67
Fc68
Fc69
Fc70
Fc71
Fc72
Fc73
Fc74
Fc75
Fc76
Fc77
Fc78
Fc79
Fc80
Fc81
Fc82
Fc83
Fc84
Fc85
Fc86
Fc87
Fc88
Fc89
Fc90
Fc91
Fc92
Fc93
Fc94
Fc95
Fc96
Fc97
Fc98
Fc99
Fc100
Fc101
Fc102
Fc103
Fc104
Fc105
Fc106
Fc107
Fc108
Fc109
Fc110
Fc111
Fc112
Fc113
Fc114
Fc115
Fc116
Fc117
Fc118
Fc119
Fc120
Fc121
Fc122
Fc123
Fc124
Fc125
Fc126
Fc127
Fc128
Fc129
Fc130
Fc131
Fc132
Fc133
Fc134
Fc135
Fc136
Fc137
Fc138
Fc139
Fc140
Fc141
Fc142
Fc143
Fc144
Fc145
Fc146
Fc147
Fc148
Fc149
Fc150
Fc151
Fc152
Fc153
Fc154
Fc155
Fc156
Fc157
Fc158
Fc159
Fc160
Fc161
Fc162
Fc163
Fc164
Fc165
Fc166
Fc167
Fc168
Fc169
Fc170
Fc171
Fc172
Fc173
Fc174
Fc175
Fc176
Fc177
Fc178
Fc179
Fc180
Fc181
Fc182
Fc183
Fc184
Fc185
Fc186
Fc187
Fc188
Fc189
Fc190
Fc191
Fc192
Fc193
Fc194
Fc195
Fc196
Fc197
Fc198
Fc199
Fc200
Fc201
Fc202
Fc203
Fc204
Fc205
Fc206
Fc207
Fc208
Fc209
Fc210
Fc211
Fc212
Fc213
Fc214
Fc215
Fc216
Fc217
Fc218
Fc219
Fc220
Fc221
Fc222
Fc223
Fc224
Fc225
Fc226
Fc227
Fc228
Fc229
Fc230
Fc231
Fc232
Fc233
Fc234
);
