/*--------------------------------*- C++ -*----------------------------------*\
  =========                 |
  \\      /  F ield         | OpenFOAM: The Open Source CFD Toolbox
   \\    /   O peration     | Website:  https://openfoam.org
    \\  /    A nd           | Version:  6
     \\/     M anipulation  |
\*---------------------------------------------------------------------------*/
FoamFile
{
    version     2.0;
    format      ascii;
    class       dictionary;
    object      topoSetDict;
}

// * * * * * * * * * * * * * * * * * * * * * * * * * * * * * * * * * * * * * //

actions
(
    // Create dielectric zone
    {
        name    dielSet;
        type    cellSet;
        action  new;
        source  cylinderAnnulusToCell;
        sourceInfo
        {
            p1 (0 0 -0.1025);
            p2 (0 0 0.1025);
            innerRadius 0.0016;
            outerRadius 0.0032;
        }
    }
    {
        name    dielectric;
        type    cellZoneSet;
        action  new;
        source  setToCellZone;
        sourceInfo { set dielSet; }
    }

    // Create outer air zone
    {
        name    airSet;
        type    cellSet;
        action  new;
        source  cylinderAnnulusToCell;
        sourceInfo
        {
            p1 (0 0 -0.1025);
            p2 (0 0 0.1025);
            innerRadius 0.0032;
            outerRadius 0.1;
        }
    }
    {
        name    air;
        type    cellZoneSet;
        action  new;
        source  setToCellZone;
        sourceInfo { set airSet; }
    }

);

// ************************************************************************* //
