* * * * * * * * * * * * * * * * * * * * * * * * * * * * * * * * * * * * //
/*--------------------------------*- C++ -*----------------------------------*\
  =========                 |
  \\      /  F ield         | OpenFOAM: The Open Source CFD Toolbox
   \\    /   O peration     | Website:  https://openfoam.org
    \\  /    A nd           | Version:  7
     \\/     M anipulation  |
\*---------------------------------------------------------------------------*/
FoamFile
{
    version     2.0;
    format      ascii;
    class       dictionary;
    object      fvOptions;
}
// * * * * * * * * * * * * * * * * * * * * * * * * * * * * * * * * * * * * * //

limitT
{
    type       limitTemerature;
    min        101;
    max        1000;
    selectionMode all;
}

//************************************************************************** //

fixedTemperature
{
    type            fixedTemperatureConstraint;
    active          no;
    selectionMode   all;

    mode            uniform;

    temperature     constant 300; // Set temperature (K)
}

fixedPower
{
    type            scalarSemiImplicitSource;
    active          yes;
    selectionMode   all;

    volumeMode      absolute;

    power           1.0e50;          // Set power (W)

    injectionRateSuSp
    {
        ne           ($power $power);
    }
}

//************************************************************************** //
