/*--------------------------------*- C++ -*----------------------------------*\
  =========                 |
  \\      /  F ield         | OpenFOAM: The Open Source CFD Toolbox
   \\    /   O peration     | Website:  https://openfoam.org
    \\  /    A nd           | Version:  6
     \\/     M anipulation  |
\*---------------------------------------------------------------------------*/
FoamFile
{
    version     2.0;
    format      ascii;
    class       dictionary;
    object      topoSetDict;
}

// * * * * * * * * * * * * * * * * * * * * * * * * * * * * * * * * * * * * * //

actions
(
    // High Voltage electrode
    {
        name    HVelectrodeSet;
        type    faceSet;
        action  new;
        source  boxToFace;
        sourceInfo
        {
            box (-100.0e-6 0.0 -1.0) (0.0 0.0 1.0);
        }
    }
    {
        name    HVelectrodeZone;
        type    faceZoneSet;
        action  new;
        source  setToFaceZone;
        sourceInfo
        {
            faceSet HVelectrodeSet;
        }
    }

    
);

// ************************************************************************* //
