/*--------------------------------*- C++ -*----------------------------------*\
  =========                 |
  \\      /  F ield         | OpenFOAM: The Open Source CFD Toolbox
   \\    /   O peration     | Website:  https://openfoam.org
    \\  /    A nd           | Version:  7
     \\/     M anipulation  |
\*---------------------------------------------------------------------------*/
FoamFile
{
    version     2.0;
    format      ascii;
    class       polyBoundaryMesh;
    location    "constant/polyMesh";
    object      boundary;
}
// * * * * * * * * * * * * * * * * * * * * * * * * * * * * * * * * * * * * * //

5
(
    topWall
    {
        type            wall;
        inGroups        List<word> 1(wall);
        nFaces          120;
        startFace       14220;
    }
    leftWall
    {
        type            wall;
        inGroups        List<word> 1(wall);
        nFaces          60;
        startFace       14340;
    }
    rightWall
    {
        type            wall;
        inGroups        List<word> 1(wall);
        nFaces          60;
        startFace       14400;
    }
    bottomWall
    {
        type            wall;
        inGroups        List<word> 1(wall);
        nFaces          120;
        startFace       14460;
    }
    frontAndBack
    {
        type            empty;
        inGroups        List<word> 1(empty);
        nFaces          14400;
        startFace       14580;
    }
)

// ************************************************************************* //
