/*--------------------------------*- C++ -*----------------------------------*\
| =========                 |                                                 |
| \\      /  F ield         | OpenFOAM: The Open Source CFD Toolbox           |
|  \\    /   O peration     | Version:  v1912                                 |
|   \\  /    A nd           | Website:  www.openfoam.com                      |
|    \\/     M anipulation  |                                                 |
\*---------------------------------------------------------------------------*/
FoamFile
{
    version     2.0;
    format      ascii;
    class       dictionary;
    object      setExprFieldsDict;
}
// * * * * * * * * * * * * * * * * * * * * * * * * * * * * * * * * * * * * * //


expressions
(
    T
    {
        field       T;
        dimensions  [0 0 0 1 0 0 0];

        constants
        {
            centre (0 0 0);
        }

        variables
        (
            "radius = 1.0"
        );

        condition
        #{
            (mag(pos() - $[(vector)constants.centre]) < radius)
//          && pos((pos() - $[(vector)constants.centre]).y()) > 0
        #};

        expression
        #{
			  1
//			  1 - pos().y()
//			  mag(pos() - $[(vector)constants.centre])
//			  mag(pos().y() - $[(vector)constants.centre].y())
//            0.5 + 0.5 * (1 - mag(pos() - $[(vector)constants.centre]) / radius)
        #};
    }
);


// ************************************************************************* //
