/*--------------------------------*- C++ -*----------------------------------*\
| =========                 |                                                 |
| \\      /  F ield         | OpenFOAM: The Open Source CFD Toolbox           |
|  \\    /   O peration     | Version:  2406                                  |
|   \\  /    A nd           | Website:  www.openfoam.com                      |
|    \\/     M anipulation  |                                                 |
\*---------------------------------------------------------------------------*/
FoamFile
{
    version     2.0;
    format      ascii;
    arch        "LSB;label=32;scalar=64";
    class       polyBoundaryMesh;
    location    "constant/dielectric/polyMesh";
    object      boundary;
}
// * * * * * * * * * * * * * * * * * * * * * * * * * * * * * * * * * * * * * //

7
(
    leftBoundary
    {
        type            wall;
        inGroups        1(wall);
        nFaces          7;
        startFace       5635;
    }
    rightBoundary
    {
        type            wall;
        inGroups        1(wall);
        nFaces          7;
        startFace       5642;
    }
    highVoltage
    {
        type            wall;
        inGroups        1(wall);
        nFaces          22;
        startFace       5649;
    }
    ground
    {
        type            wall;
        inGroups        1(wall);
        nFaces          44;
        startFace       5671;
    }
    frontAndBack
    {
        type            empty;
        inGroups        1(empty);
        nFaces          6076;
        startFace       5715;
    }
    dielectric_to_encapsulator
    {
        type            mappedWall;
        inGroups        1(wall);
        nFaces          390;
        startFace       11791;
        sampleMode      nearestPatchFace;
        sampleRegion    encapsulator;
        samplePatch     encapsulator_to_dielectric;
    }
    dielectric_to_region0
    {
        type            mappedWall;
        inGroups        1(wall);
        nFaces          412;
        startFace       12181;
        sampleMode      nearestPatchFace;
        sampleRegion    region0;
        samplePatch     region0_to_dielectric;
    }
)

// ************************************************************************* //
