/*--------------------------------*- C++ -*----------------------------------*\
  =========                 |
  \\      /  F ield         | OpenFOAM: The Open Source CFD Toolbox
   \\    /   O peration     | Website:  https://openfoam.org
    \\  /    A nd           | Version:  7
     \\/     M anipulation  |
\*---------------------------------------------------------------------------*/
FoamFile
{
    version     2.0;
    format      ascii;
    class       dictionary;
    location    "system";
    object      controlDict;
}
// * * * * * * * * * * * * * * * * * * * * * * * * * * * * * * * * * * * * * //

application     plasmaChemFoam;

startFrom       startTime;

startTime       0;

stopAt          endTime;

endTime         3.571428e-05;

deltaT          1.0e-12;

writeControl    runTime;

writeInterval   1.e-6;

purgeWrite      0;

writeFormat     ascii;

writePrecision  6;

writeCompression off;

timeFormat      general;

timePrecision   6;

runTimeModifiable true;

adjustTimeStep  yes;

maxCo           0.8;

maxDeltaT       0.00001;

functions
{
    probes
    {
        functionObjectLibs ( "libsampling.so" );
        type            probes;
        name            probes;
        writeControl    timeStep;
        writeInterval   1;
        fields          ( rhoq Fc ne np nn );
        probeLocations  
        ( 
        ( 0 0.035e-3 0.025 ) ( 0.5e-3 0.035e-3 0.025 ) ( 1.0e-3 0.035e-3 0.025 ) ( 1.5e-3 0.035e-3 0.025 ) ( 2.0e-3 0.035e-3 0.025 ) ( 3.0e-3 0.035e-3 0.025 ) ( 4.0e-3 0.035e-3 0.025 ) ( 5.0e-3 0.035e-3 0.025 ) ( 6.0e-3 0.035e-3 0.025 ) ( 7.0e-3 0.035e-3 0.025 ) ( 8.0e-3 0.035e-3 0.025 ) ( 9.0e-3 0.035e-3 0.025 ) ( 10.0e-3 0.035e-3 0.025 ) 
        );
    }
    fieldAverage1
    {
        type            fieldAverage;
        libs            ( "libfieldFunctionObjects.so" );
        writeControl    writeTime;
        fields          ( Fc { mean on ; prime2Mean off ; base time ; } );
        log             false;
    }
}

// ************************************************************************* //
