/*--------------------------------*- C++ -*----------------------------------*\
  =========                 |
  \\      /  F ield         | OpenFOAM: The Open Source CFD Toolbox
   \\    /   O peration     | Website:  https://openfoam.org
    \\  /    A nd           | Version:  7
     \\/     M anipulation  |
\*---------------------------------------------------------------------------*/
FoamFile
{
    version     2.0;
    format      ascii;
    class       polyBoundaryMesh;
    location    "constant/polyMesh";
    object      boundary;
}
// * * * * * * * * * * * * * * * * * * * * * * * * * * * * * * * * * * * * * //

6
(
    upperBoundary
    {
        type            wall;
        inGroups        List<word> 1(wall);
        nFaces          516;
        startFace       348163;
    }
    leftBoundary
    {
        type            wall;
        inGroups        List<word> 1(wall);
        nFaces          127;
        startFace       348679;
    }
    rightBoundary
    {
        type            wall;
        inGroups        List<word> 1(wall);
        nFaces          127;
        startFace       348806;
    }
    highVoltage
    {
        type            wall;
        inGroups        List<word> 1(wall);
        nFaces          180;
        startFace       348933;
    }
    frontAndBack
    {
        type            empty;
        inGroups        List<word> 1(empty);
        nFaces          348652;
        startFace       349113;
    }
    region0_to_dielectric
    {
        type            mappedWall;
        inGroups        List<word> 1(wall);
        nFaces          789;
        startFace       697765;
        sampleMode      nearestPatchFace;
        sampleRegion    dielectric;
        samplePatch     dielectric_to_region0;
    }
)

// ************************************************************************* //
