/*--------------------------------*- C++ -*----------------------------------*\
  =========                 |
  \\      /  F ield         | OpenFOAM: The Open Source CFD Toolbox
   \\    /   O peration     | Website:  https://openfoam.org
    \\  /    A nd           | Version:  8
     \\/     M anipulation  |
\*---------------------------------------------------------------------------*/
FoamFile
{
    version     2.0;
    format      ascii;
    class       dictionary;
    location    "constant";
    object      fvOptions;
}
// * * * * * * * * * * * * * * * * * * * * * * * * * * * * * * * * * * * * * //

heatSource
{
    type            scalarSemiImplicitSource;
    active          true;
 
    scalarSemiImplicitSourceCoeffs
    {
        // timeStart       0;
        // duration        350.0e-9;
        selectionMode   all; 
        volumeMode      specific; //absolute;  
        injectionRateSuSp
        {
            rhoE     (4.479e11 0);
        }
    }
}

// ************************************************************************* //
