/*--------------------------------*- C++ -*----------------------------------*\
  =========                 |
  \\      /  F ield         | OpenFOAM: The Open Source CFD Toolbox
   \\    /   O peration     | Website:  https://openfoam.org
    \\  /    A nd           | Version:  7
     \\/     M anipulation  |
\*---------------------------------------------------------------------------*/
FoamFile
{
    version     2.0;
    format      ascii;
    class       dictionary;
    location    "system";
    object      fvSolution;
}
// * * * * * * * * * * * * * * * * * * * * * * * * * * * * * * * * * * * * * //

solvers
{
    voltAext
    {
        solver          PCG;
        preconditioner  DIC;
        tolerance       1e-06;
        // relTol          0.05;
    }

    voltArho
    {
        solver          PCG;
        preconditioner  DIC;
        tolerance       1e-06;
        // relTol          0.05;
    }
    
    voltDext
    {
        solver          PCG;
        preconditioner  DIC;
        tolerance       1e-06;
        // relTol          0.05;
    }

    voltDrho
    {
        solver          PCG;
        preconditioner  DIC;
        tolerance       1e-06;
        // relTol          0.05;
    }

    voltIext
    {
        solver          PCG;
        preconditioner  DIC;
        tolerance       1e-06;
        // relTol          0.05;
    }
    
    voltIrho
    {
        solver          PCG;
        preconditioner  DIC;
        tolerance       1e-06;
        // relTol          0.05;
    }
}
/*
relaxationFactors
{
    fields
    {
        voltArho    0.7;
    }
    equations
    {
        voltArho    0.7;
    }
}
*/

// ************************************************************************* //
