/*--------------------------------*- C++ -*----------------------------------*\
| =========                 |                                                 |
| \\      /  F ield         | OpenFOAM: The Open Source CFD Toolbox           |
|  \\    /   O peration     | Version:  2406                                  |
|   \\  /    A nd           | Website:  www.openfoam.com                      |
|    \\/     M anipulation  |                                                 |
\*---------------------------------------------------------------------------*/
FoamFile
{
    version     2.0;
    format      ascii;
    arch        "LSB;label=32;scalar=64";
    class       polyBoundaryMesh;
    location    "constant/region0/polyMesh";
    object      boundary;
}
// * * * * * * * * * * * * * * * * * * * * * * * * * * * * * * * * * * * * * //

6
(
    upperBoundary
    {
        type            wall;
        inGroups        1(wall);
        nFaces          510;
        startFace       94700;
    }
    leftBoundary
    {
        type            wall;
        inGroups        1(wall);
        nFaces          93;
        startFace       95210;
    }
    rightBoundary
    {
        type            wall;
        inGroups        1(wall);
        nFaces          93;
        startFace       95303;
    }
    highVoltage
    {
        type            wall;
        inGroups        1(wall);
        nFaces          63;
        startFace       95396;
    }
    frontAndBack
    {
        type            empty;
        inGroups        1(empty);
        nFaces          95300;
        startFace       95459;
    }
    region0_to_dielectric
    {
        type            mappedWall;
        inGroups        1(wall);
        nFaces          470;
        startFace       190759;
        sampleMode      nearestPatchFace;
        sampleRegion    dielectric;
        samplePatch     dielectric_to_region0;
    }
)

// ************************************************************************* //
