/*--------------------------------*- C++ -*----------------------------------*\
  =========                 |
  \\      /  F ield         | OpenFOAM: The Open Source CFD Toolbox
   \\    /   O peration     | Website:  https://openfoam.org
    \\  /    A nd           | Version:  7
     \\/     M anipulation  |
\*---------------------------------------------------------------------------*/
FoamFile
{
    version     2.0;
    format      ascii;
    class       polyBoundaryMesh;
    location    "constant/dielectric/polyMesh";
    object      boundary;
}
// * * * * * * * * * * * * * * * * * * * * * * * * * * * * * * * * * * * * * //

7
(
    leftBoundary
    {
        type            wall;
        inGroups        List<word> 1(wall);
        nFaces          31;
        startFace       164827;
    }
    rightBoundary
    {
        type            wall;
        inGroups        List<word> 1(wall);
        nFaces          31;
        startFace       164858;
    }
    highVoltage
    {
        type            wall;
        inGroups        List<word> 1(wall);
        nFaces          172;
        startFace       164889;
    }
    ground
    {
        type            wall;
        inGroups        List<word> 1(wall);
        nFaces          240;
        startFace       165061;
    }
    frontAndBack
    {
        type            empty;
        inGroups        List<word> 1(empty);
        nFaces          165726;
        startFace       165301;
    }
    dielectric_to_insulator
    {
        type            mappedWall;
        inGroups        List<word> 1(wall);
        nFaces          721;
        startFace       331027;
        sampleMode      nearestPatchFace;
        sampleRegion    insulator;
        samplePatch     insulator_to_dielectric;
    }
    dielectric_to_region0
    {
        type            mappedWall;
        inGroups        List<word> 1(wall);
        nFaces          789;
        startFace       331748;
        sampleMode      nearestPatchFace;
        sampleRegion    region0;
        samplePatch     region0_to_dielectric;
    }
)

// ************************************************************************* //
