/*--------------------------------*- C++ -*----------------------------------*\
  =========                 |
  \\      /  F ield         | OpenFOAM: The Open Source CFD Toolbox
   \\    /   O peration     | Website:  https://openfoam.org
    \\  /    A nd           | Version:  7
     \\/     M anipulation  |
\*---------------------------------------------------------------------------*/
FoamFile
{
    version     2.0;
    format      ascii;
    class       volScalarField;
    object      rhoq;
}
// * * * * * * * * * * * * * * * * * * * * * * * * * * * * * * * * * * * * * //

dimensions      [0 -3 1 0 0 1 0];

internalField   #codeStream // Use codeStream to set the value of the initial conditions
{
        codeInclude
        #{
            #include "fvCFD.H"
        #};
        codeOptions
        #{
            -I$(LIB_SRC)/finiteVolume/lnInclude \
            -I$(LIB_SRC)/meshTools/lnInclude
        #};
        codeLibs
        #{
            -lmeshTools \
            -lfiniteVolume
        #};
        // Depending of what are you trying to do, you will need to add new files, options and libraries.
        // For most of the cases, this part is always the same.
       
        code // Insert your code here. At this point, you need to know how to access internal mesh information
        #{
            const IOdictionary& d = static_cast<const IOdictionary&>(dict);
            const fvMesh& mesh = refCast<const fvMesh>(d.db());
            // Access internal mesh information
           

            scalarField rhoq(mesh.nCells(), 0.);

            scalar rhoq0 = -0.01;
            scalar PlasmaStart = 50e-5;
            scalar PlasmaWidth = 6.0e-3;
            scalar PlasmaThick = 1.5e-3;
           
            forAll(rhoq, i)
            {
                //Access cell centers coordinates
                const scalar x = mesh.C()[i][0];
                const scalar y = mesh.C()[i][1];
                const scalar z = mesh.C()[i][2];
                
                if ( x>PlasmaStart && x<PlasmaWidth && y>0 && y<((PlasmaThick/(PlasmaWidth-PlasmaStart))*(PlasmaWidth-x)) )
                {
                    rhoq[i] = -rhoq0*((x-PlasmaStart)/PlasmaWidth + y/PlasmaThick - 1.0);
                    // rhoq[i] = rhoq0;
                }
            }

            writeEntry(os, "", rhoq);

            // rhoq.write();
        #};
};

boundaryField
{
    upperBoundary
    {
        type            fixedValue;
        value           uniform 0;
    }

    leftBoundary
    {
        type            fixedValue;
        value           uniform 0;
    }

    rightBoundary
    {
        type            fixedValue;
        value           uniform 0;
    }

    region0_to_dielectric
    {
        type            zeroGradient;
    }

    highVoltage
    {
        type            zeroGradient;
    }

    frontAndBack
    {
        type            empty;
    }
}

// ************************************************************************* //
