/*--------------------------------*- C++ -*----------------------------------*\
  =========                 |
  \\      /  F ield         | OpenFOAM: The Open Source CFD Toolbox
   \\    /   O peration     | Website:  https://openfoam.org
    \\  /    A nd           | Version:  7  
     \\/     M anipulation  |
\*---------------------------------------------------------------------------*/
FoamFile
{
    version     2.0;
    format      ascii;
    class       volScalarField;
    object      voltAextMag;
}
// * * * * * * * * * * * * * * * * * * * * * * * * * * * * * * * * * * * * * //

dimensions      [1 2 -3 0 0 -1 0];

internalField   uniform 0;

voltage         uniform 16.0e3;

boundaryField
{

    upperBoundary
    {
        type            zeroGradient;
    }

    leftBoundary
    {
        type            zeroGradient;
    }

    rightBoundary
    {
        type            zeroGradient;
    }

    highVoltage
    {
        type            fixedValue;
        value           $voltage;
    }

    region0_to_dielectric
    {
        type            compressible::turbulentTemperatureCoupledBaffleMixed;
        value           $internalField;
        Tnbr            voltDextMag;
        kappaMethod     lookup;
        kappa           epsilonA;
    }

    frontAndBack
    {
        type            empty;
    }

}

// ************************************************************************* //
