/*--------------------------------*- C++ -*----------------------------------*\
  =========                 |
  \\      /  F ield         | OpenFOAM: The Open Source CFD Toolbox
   \\    /   O peration     | Website:  https://openfoam.org
    \\  /    A nd           | Version:  7
     \\/     M anipulation  |
\*---------------------------------------------------------------------------*/
FoamFile
{
    version     2.0;
    format      ascii;
    class       dictionary;
    object      blockMeshDict;
}
// * * * * * * * * * * * * * * * * * * * * * * * * * * * * * * * * * * * * * //

convertToMeters 1.0;

// Geometric parameters
L 4.0;                          // Domain length in x-axis
H_Air 2.0;                      // Air height
H_Ins 0.1;                      // Total Dielectric height
t_Diel 0.002;                   // Dielectric between electrodes thickness
L_HVe 0.01;                     // Length of high-voltage electrode
t_HVe 0.0005;                   // Thickness of high-voltage electrode
L_GRe 0.01;                     // Length of grounded electrode
t_GRe 0.0005;                   // Thickness of grounded electrode

// Grid managment in x-direction
cellsxNonUniRHS 40;            // Cells in RHS non-uniform part of the domain in the x-axis
LnonUniPercRHS 0.992;            // Percentage of domain in the RHS containing non-uniform cells
cellsxNonUniLHS 40;            // Cells in LHS non-uniform part of the domain in the x-axis
LnonUniPercLHS 0.992;            // Percentage of domain in the LHS containing non-uniform cells
expRatiox 1000.0;                // Expansion ratio of the left side of the domain in the x-axis

// Grid managment in y-direction
cellsyNonUniAir 40;            // Cells in Air non-uniform part of the domain in the y-axis
HnonUniPercAir 0.992;            // Percentage of domain in the Air containing non-uniform cells
cellsyNonUniIns 40;            // Cells in Insulator non-uniform part of the domain in the y-axis
HnonUniPercIns 0.992;            // Percentage of domain in the Insulator containing non-uniform cells
expRatioy 1000.0;                // Expansion ratio of the left side of the domain in the y-axis

// Grid managment in z-direction
z_thick 0.05;                   // Depth in z-axis



// * * * * * * * * * * * * * * * * * * * * * * * * * * * * * * * * * * * * * * * * * * * * * * * * * * * * * * * //

// The rest of the code is automated to create a DBD geometry, according to the parameters defined above.

// * * * * * * * * * * * * * * * * * * * * * * * * * * * * * * * * * * * * * * * * * * * * * * * * * * * * * * * //



// x-axis
LUniPercRHS #calc "1.0 - $LnonUniPercRHS";
LUniRHS #calc "(0.5*$L-$L_GRe)*$LUniPercRHS";
LnonUniRHS #calc "(0.5*$L-$L_GRe)*$LnonUniPercRHS";
Dxn (#codeStream {
    code #{
        scalar suma = 0;
        int i = 0;
        for (i=0 ; i<$cellsxNonUniRHS ; i++)
            suma += pow($expRatiox , (i/($cellsxNonUniRHS - 1.0)) );
        os << $LnonUniRHS/suma << endl;
    #};
} ); 
cellsxUniRHS #calc "int($LUniRHS/$Dxn + 0.5)";
cellsxTotalRHS #calc "$cellsxNonUniRHS + $cellsxUniRHS";
cellsxNonUniPercRHS #calc "1.0*$cellsxNonUniRHS/$cellsxTotalRHS";
cellsxUniPercRHS #calc "1.0*$cellsxUniRHS/$cellsxTotalRHS";

cellsxHVe #calc "int(1.0*$L_HVe/$Dxn + 0.5)";
cellsxGRe #calc "int(1.0*$L_GRe/$Dxn + 0.5)";

LUniPercLHS #calc "1.0 - $LnonUniPercLHS";
LUniLHS #calc "(0.5*$L-$L_HVe)*$LUniPercLHS";
LnonUniLHS #calc "(0.5*$L-$L_HVe)*$LnonUniPercLHS";
cellsxUniLHS  #calc "int($LUniLHS/$Dxn + 0.5)";
cellsxTotalLHS #calc "$cellsxNonUniLHS + $cellsxUniLHS";
cellsxNonUniPercLHS #calc "1.0*$cellsxNonUniLHS/$cellsxTotalLHS";
cellsxUniPercLHS #calc "1.0*$cellsxUniLHS/$cellsxTotalLHS";
expRatioxLHS #calc "1.0/$expRatiox";

// y-axis
HUniPercAir #calc "1.0 - $HnonUniPercAir";
HUniAir #calc "($H_Air-$t_HVe)*$HUniPercAir";
HnonUniAir #calc "($H_Air-$t_HVe)*$HnonUniPercAir";
Dyn (#codeStream {
    code #{
        scalar suma = 0;
        int i = 0;
        for (i=0 ; i<$cellsyNonUniAir ; i++)
            suma += pow($expRatioy , (1.0*i/($cellsyNonUniAir - 1.0)) );
        os << $HnonUniAir/suma << endl;
    #};
} ); 
cellsyUniAir #calc "int($HUniAir/$Dyn + 0.5)";
cellsyTotalAir #calc "$cellsyNonUniAir + $cellsyUniAir";
cellsyNonUniPercAir #calc "1.0*$cellsyNonUniAir/$cellsyTotalAir";
cellsyUniPercAir #calc "1.0*$cellsyUniAir/$cellsyTotalAir";

cellsyHVe #calc "int(1.0*$t_HVe/$Dyn + 0.5)";
cellsyDiel #calc "int(1.0*$t_Diel/$Dyn + 0.5)";
cellsyGRe #calc "int(1.0*$t_GRe/$Dyn + 0.5)";

HUniPercIns #calc "1.0 - $HnonUniPercIns";
HUniIns #calc "($H_Ins-$t_GRe)*$HUniPercIns";
HnonUniIns #calc "($H_Ins-$t_GRe)*$HnonUniPercIns";
cellsyUniIns  #calc "int($HUniIns/$Dyn + 0.5)";
cellsyTotalIns #calc "$cellsyNonUniIns + $cellsyUniIns";
cellsyNonUniPercIns #calc "1.0*$cellsyNonUniIns/$cellsyTotalIns";
cellsyUniPercIns #calc "1.0*$cellsyUniIns/$cellsyTotalIns";
expRatioyIns #calc "1.0/$expRatioy";

// Calculated parameters for vertices
X0 #calc "-0.5*$L";
Y0 0.0;
X1 #calc "-$L_HVe";
Y1 0.0;
X2 0.0;
Y2 0.0;
X3 #calc "$L_GRe";
Y3 0.0;
X4 #calc "0.5*$L";
Y4 0.0;

X5 #calc "-0.5*$L";
Y5 #calc "$t_HVe";
X6 #calc "-$L_HVe";
Y6 #calc "$t_HVe";
X7 0.0;
Y7 #calc "$t_HVe";
X8 #calc "$L_GRe";
Y8 #calc "$t_HVe";
X9 #calc "0.5*$L";
Y9 #calc "$t_HVe";

X10 #calc "-0.5*$L";
Y10 #calc "$H_Air";
X11 #calc "-$L_HVe";
Y11 #calc "$H_Air";
X12 0.0;
Y12 #calc "$H_Air";
X13 #calc "$L_GRe";
Y13 #calc "$H_Air";
X14 #calc "0.5*$L";
Y14 #calc "$H_Air";

X30 #calc "-0.5*$L";
Y30 #calc "-$H_Ins-$t_Diel";
X31 #calc "-$L_HVe";
Y31 #calc "-$H_Ins-$t_Diel";
X32 0.0;
Y32 #calc "-$H_Ins-$t_Diel";
X33 #calc "$L_GRe";
Y33 #calc "-$H_Ins-$t_Diel";
X34 #calc "0.5*$L";
Y34 #calc "-$H_Ins-$t_Diel";

X35 #calc "-0.5*$L";
Y35 #calc "-$t_Diel - $t_GRe";
X36 #calc "-$L_HVe";
Y36 #calc "-$t_Diel - $t_GRe";
X37 0.0;
Y37 #calc "-$t_Diel - $t_GRe";
X38 #calc "$L_GRe";
Y38 #calc "-$t_Diel - $t_GRe";
X39 #calc "0.5*$L";
Y39 #calc "-$t_Diel - $t_GRe";

X40 #calc "-0.5*$L";
Y40 #calc "-$t_Diel";
X41 #calc "-$L_HVe";
Y41 #calc "-$t_Diel";
X42 0.0;
Y42 #calc "-$t_Diel";
X43 #calc "$L_GRe";
Y43 #calc "-$t_Diel";
X44 #calc "0.5*$L";
Y44 #calc "-$t_Diel";


vertices
(
    // Air vertices
    ($X0 $Y0 0)                     // 0
    ($X1 $Y1 0)                     // 1
    ($X2 $Y2 0)                     // 2
    ($X3 $Y3 0)                     // 3
    ($X4 $Y4 0)                     // 4

    ($X5 $Y5 0)                     // 5
    ($X6 $Y6 0)                     // 6
    ($X7 $Y7 0)                     // 7
    ($X8 $Y8 0)                     // 8
    ($X9 $Y9 0)                     // 9

    ($X10 $Y10 0)                   // 10
    ($X11 $Y11 0)                   // 11
    ($X12 $Y12 0)                   // 12
    ($X13 $Y13 0)                   // 13
    ($X14 $Y14 0)                   // 14

    ($X0 $Y0 $z_thick)              // 15
    ($X1 $Y1 $z_thick)              // 16
    ($X2 $Y2 $z_thick)              // 17
    ($X3 $Y3 $z_thick)              // 18
    ($X4 $Y4 $z_thick)              // 19

    ($X5 $Y5 $z_thick)              // 20
    ($X6 $Y6 $z_thick)              // 21
    ($X7 $Y7 $z_thick)              // 22
    ($X8 $Y8 $z_thick)              // 23
    ($X9 $Y9 $z_thick)              // 24

    ($X10 $Y10 $z_thick)            // 25
    ($X11 $Y11 $z_thick)            // 26
    ($X12 $Y12 $z_thick)            // 27
    ($X13 $Y13 $z_thick)            // 28
    ($X14 $Y14 $z_thick)            // 29

    // Solid vertices
    ($X30 $Y30 0)                   // 30
    ($X31 $Y31 0)                   // 31
    ($X32 $Y32 0)                   // 32
    ($X33 $Y33 0)                   // 33
    ($X34 $Y34 0)                   // 34

    ($X35 $Y35 0)                   // 35
    ($X36 $Y36 0)                   // 36
    ($X37 $Y37 0)                   // 37
    ($X38 $Y38 0)                   // 38
    ($X39 $Y39 0)                   // 39

    ($X40 $Y40 0)                   // 40
    ($X41 $Y41 0)                   // 41
    ($X42 $Y42 0)                   // 42
    ($X43 $Y43 0)                   // 43
    ($X44 $Y44 0)                   // 44

    ($X30 $Y30 $z_thick)            // 45
    ($X31 $Y31 $z_thick)            // 46
    ($X32 $Y32 $z_thick)            // 47
    ($X33 $Y33 $z_thick)            // 48
    ($X34 $Y34 $z_thick)            // 49

    ($X35 $Y35 $z_thick)            // 50
    ($X36 $Y36 $z_thick)            // 51
    ($X37 $Y37 $z_thick)            // 52
    ($X38 $Y38 $z_thick)            // 53
    ($X39 $Y39 $z_thick)            // 54

    ($X40 $Y40 $z_thick)            // 55
    ($X41 $Y41 $z_thick)            // 56
    ($X42 $Y42 $z_thick)            // 57
    ($X43 $Y43 $z_thick)            // 58
    ($X44 $Y44 $z_thick)            // 59
);



blocks
(
    hex (0 1 6 5 15 16 21 20) ($cellsxTotalLHS $cellsyHVe 1)                        // Block 0
    simpleGrading
    (
        (
            ($LnonUniPercLHS $cellsxNonUniPercLHS $expRatioxLHS)
            ($LUniPercLHS $cellsxUniPercLHS 1)
        )
        1 
        1 
    )

    hex (2 3 8 7 17 18 23 22) ($cellsxGRe $cellsyHVe 1) simpleGrading (1 1 1)       // Block 1

    hex (3 4 9 8 18 19 24 23) ($cellsxTotalRHS $cellsyHVe 1)                        // Block 2
    simpleGrading
    (
        (
            ($LUniPercRHS $cellsxUniPercRHS 1)
            ($LnonUniPercRHS $cellsxNonUniPercRHS $expRatiox)
        )
        1 
        1 
    )

    hex (5 6 11 10 20 21 26 25) ($cellsxTotalLHS $cellsyTotalAir 1)                 // Block 3
    simpleGrading
    (
        (
            ($LnonUniPercLHS $cellsxNonUniPercLHS $expRatioxLHS)
            ($LUniPercLHS $cellsxUniPercLHS 1)
        )
        (
            ($HUniPercAir $cellsyUniPercAir 1)
            ($HnonUniPercAir $cellsyNonUniPercAir $expRatioy)
        )
        1 
    )

    hex (6 7 12 11 21 22 27 26) ($cellsxHVe $cellsyTotalAir 1)                      // Block 4
    simpleGrading 
    (
        1 
        (
            ($HUniPercAir $cellsyUniPercAir 1)
            ($HnonUniPercAir $cellsyNonUniPercAir $expRatioy)
        )
        1
    )         

    hex (7 8 13 12 22 23 28 27) ($cellsxGRe $cellsyTotalAir 1)                      // Block 5
    simpleGrading 
    (
        1 
        (
            ($HUniPercAir $cellsyUniPercAir 1)
            ($HnonUniPercAir $cellsyNonUniPercAir $expRatioy)
        )
        1
    )   

    hex (8 9 14 13 23 24 29 28) ($cellsxTotalRHS $cellsyTotalAir 1)                 // Block 6
    simpleGrading
    (
        (
            ($LUniPercRHS $cellsxUniPercRHS 1)
            ($LnonUniPercRHS $cellsxNonUniPercRHS $expRatiox)
        )
        (
            ($HUniPercAir $cellsyUniPercAir 1)
            ($HnonUniPercAir $cellsyNonUniPercAir $expRatioy)
        )
        1 
    )

    hex (30 31 36 35 45 46 51 50) ($cellsxTotalLHS $cellsyTotalIns 1)               // Block 7
    simpleGrading
    (
        (
            ($LnonUniPercLHS $cellsxNonUniPercLHS $expRatioxLHS)
            ($LUniPercLHS $cellsxUniPercLHS 1)
        )
        (
            ($HnonUniPercIns $cellsyNonUniPercIns $expRatioyIns)
            ($HUniPercIns $cellsyUniPercIns 1)
        )
        1 
    )

    hex (31 32 37 36 46 47 52 51) ($cellsxHVe $cellsyTotalIns 1)                    // Block 8
    simpleGrading
    (
        1
        (
            ($HnonUniPercIns $cellsyNonUniPercIns $expRatioyIns)
            ($HUniPercIns $cellsyUniPercIns 1)
        )
        1
    )

    hex (32 33 38 37 47 48 53 52) ($cellsxGRe $cellsyTotalIns 1)                    // Block 9
    simpleGrading
    (
        1
        (
            ($HnonUniPercIns $cellsyNonUniPercIns $expRatioyIns)
            ($HUniPercIns $cellsyUniPercIns 1)
        )
        1
    )

    hex (33 34 39 38 48 49 54 53) ($cellsxTotalRHS $cellsyTotalIns 1)               // Block 10
    simpleGrading
    (
        (
            ($LUniPercRHS $cellsxUniPercRHS 1)
            ($LnonUniPercRHS $cellsxNonUniPercRHS $expRatiox)
        )
        (
            ($HnonUniPercIns $cellsyNonUniPercIns $expRatioyIns)
            ($HUniPercIns $cellsyUniPercIns 1)
        )
        1 
    )

    hex (35 36 41 40 50 51 56 55) ($cellsxTotalLHS $cellsyGRe 1)                    // Block 11
    simpleGrading
    (
        (
            ($LnonUniPercLHS $cellsxNonUniPercLHS $expRatioxLHS)
            ($LUniPercLHS $cellsxUniPercLHS 1)
        )
        1 
        1 
    )

    hex (36 37 42 41 51 52 57 56) ($cellsxHVe $cellsyGRe 1) simpleGrading (1 1 1)   // Block 12

    hex (38 39 44 43 53 54 59 58) ($cellsxTotalRHS $cellsyGRe 1)                    // Block 13
    simpleGrading
    (
        (
            ($LUniPercRHS $cellsxUniPercRHS 1)
            ($LnonUniPercRHS $cellsxNonUniPercRHS $expRatiox)
        )
        1 
        1 
    )

    hex (40 41 1 0 55 56 16 15) ($cellsxTotalLHS $cellsyDiel 1)                     // Block 14
    simpleGrading
    (
        (
            ($LnonUniPercLHS $cellsxNonUniPercLHS $expRatioxLHS)
            ($LUniPercLHS $cellsxUniPercLHS 1)
        )
        1 
        1 
    )

    hex (41 42 2 1 56 57 17 16) ($cellsxHVe $cellsyDiel 1) simpleGrading (1 1 1)    // Block 15

    hex (42 43 3 2 57 58 18 17) ($cellsxGRe $cellsyDiel 1) simpleGrading (1 1 1)    // Block 16

    hex (43 44 4 3 58 59 19 18) ($cellsxTotalRHS $cellsyDiel 1)                     // Block 17
    simpleGrading
    (
        (
            ($LUniPercRHS $cellsxUniPercRHS 1)
            ($LnonUniPercRHS $cellsxNonUniPercRHS $expRatiox)
        )
        1 
        1 
    )
);

edges
(
);

boundary
(
    upperBoundary
    {
        type wall;
        faces
        (
            (10 25 26 11) // From Block 3
            (11 26 27 12) // From Block 4
            (12 27 28 13) // From Block 5
            (13 28 29 14) // From Block 6
        );
    }

    leftBoundary
    {
        type wall;
        faces
        (
            (5 20 25 10)  // from Block 4
            (0 15 20 5)   // From Block 0
            (40 55 15 0)  // From Block 14
            (35 50 55 40) // From Block 11
            (30 45 50 35) // From Block 7
        );
    }

    rightBoundary
    {
        type wall;
        faces
        (
            (14 29 24 9)  // From Block 6
            (9 24 19 4)   // From Block 2
            (4 19 59 44)  // From Block 17
            (44 59 54 39) // From Block 13
            (39 54 49 34) // From Block 10
        );
    }

    highVoltage
    {
        type wall;
        faces
        (
            (6 21 16 1)  // From Block 0
            (7 22 21 6)  // From Block 4
            (2 17 22 7)  // From Block 1
            (1 16 17 2)  // From Block 15
        );
    }

    ground
    {
        type wall;
        faces
        (
            (42 57 52 37) // From Block 12
            (43 58 57 42) // From Block 16
            (38 53 58 43) // From Block 18
            (37 52 53 38) // From Block 9
        );
    }

    bottomBoundary
    {
        type wall;
        faces
        (
            (31 46 45 30) // From Block 7
            (32 47 46 31) // From Block 8
            (33 48 47 32) // From Block 9
            (34 49 48 33) // From BLock 10
        );
    }


    frontAndBack
    {
        type empty;
        faces
        (
            // Front
            (10 11 6 5)   // From Block 3
            (11 12 7 6)   // From Block 4
            (12 13 8 7)   // From Block 5
            (13 14 9 8)   // From Block 6
            (5 6 1 0)     // From Block 0
            (7 8 3 2)     // From Block 1
            (8 9 4 3)     // From Block 2
            (0 1 41 40)   // From Block 14
            (1 2 42 41)   // From Block 15
            (2 3 43 42)   // From Block 16
            (3 4 44 43)   // From Block 17
            (40 41 36 35) // From Block 11
            (41 42 37 36) // From Block 12
            (43 44 39 38) // From Block 13
            (35 36 31 30) // From Block 7
            (36 37 32 31) // From Block 8
            (37 38 33 32) // From Block 9
            (38 39 34 33) // From Block 10

            // Back
            (26 25 20 21) // from block 3
            (27 26 21 22) // from block 4
            (28 27 22 23) // From Block 5
            (29 28 23 24) // From Block 6
            (21 20 15 16) // from block 0
            (23 22 17 18) // From Block 1
            (24 23 18 19) // From Block 2
            (16 15 55 56) // From Block 14
            (17 16 56 57) // From Block 15
            (18 17 57 58) // From Block 15
            (19 18 58 59) // From Block 16
            (56 55 50 51) // From Block 11
            (57 56 51 52) // From Block 12
            (59 58 53 54) // From Block 13
            (51 50 45 46) // From Block 7
            (52 51 46 47) // From Block 8
            (53 52 47 48) // From Block 9
            (54 53 48 49) // From Block 10
        );
    }
);

mergePatchPairs
(
);

// ************************************************************************* //
