/*--------------------------------*- C++ -*----------------------------------*\
  =========                 |
  \\      /  F ield         | OpenFOAM: The Open Source CFD Toolbox
   \\    /   O peration     | Website:  https://openfoam.org
    \\  /    A nd           | Version:  7
     \\/     M anipulation  |
\*---------------------------------------------------------------------------*/
FoamFile
{
    version     2.0;
    format      ascii;
    class       volScalarField;
    object      Tair;
}
// * * * * * * * * * * * * * * * * * * * * * * * * * * * * * * * * * * * * * //

dimensions      [0 0 0 1 0 0 0];

internalField   uniform 0;

boundaryField
{
    topWall
    {
        type            zeroGradient;
    }

    leftWall
    {
        type            fixedValue;
        value           uniform 350;
    }

    bottomWall
    {
        type            zeroGradient;
    }

    air_to_solid
    {
        type            compressible::turbulentTemperatureCoupledBaffleMixed;
        value           $internalField;
        Tnbr            Tsolid;
        kappaMethod     lookup;
        kappa           kappaAir;
    }

    frontAndBack
    {
        type            empty;
    }
}

// ************************************************************************* //
