/*--------------------------------*- C++ -*----------------------------------*\
  =========                 |
  \\      /  F ield         | OpenFOAM: The Open Source CFD Toolbox
   \\    /   O peration     | Website:  https://openfoam.org
    \\  /    A nd           | Version:  7
     \\/     M anipulation  |
\*---------------------------------------------------------------------------*/
FoamFile
{
    version     2.0;
    format      ascii;
    class       dictionary;
    location    "constant";
    object      physicalProperties;
}
// * * * * * * * * * * * * * * * * * * * * * * * * * * * * * * * * * * * * * //

erD                 erD [0 0 0 0 0 0 0] 3.0;

erI                 erI [0 0 0 0 0 0 0] 3.6;

e0                  e0 [-1 -3 4 0 0 2 0] 8.85419e-12;



// ************************************************************************* //
