/*--------------------------------*- C++ -*----------------------------------*\
  =========                 |
  \\      /  F ield         | OpenFOAM: The Open Source CFD Toolbox
   \\    /   O peration     | Website:  https://openfoam.org
    \\  /    A nd           | Version:  7
     \\/     M anipulation  |
\*---------------------------------------------------------------------------*/
FoamFile
{
    version     2.0;
    format      ascii;
    class       polyBoundaryMesh;
    location    "constant/solid/polyMesh";
    object      boundary;
}
// * * * * * * * * * * * * * * * * * * * * * * * * * * * * * * * * * * * * * //

5
(
    topWall
    {
        type            wall;
        inGroups        List<word> 1(wall);
        nFaces          20;
        startFace       760;
    }
    rightWall
    {
        type            wall;
        inGroups        List<word> 1(wall);
        nFaces          20;
        startFace       780;
    }
    bottomWall
    {
        type            wall;
        inGroups        List<word> 1(wall);
        nFaces          20;
        startFace       800;
    }
    frontAndBack
    {
        type            empty;
        inGroups        List<word> 1(empty);
        nFaces          800;
        startFace       820;
    }
    solid_to_air
    {
        type            mappedWall;
        inGroups        List<word> 1(wall);
        nFaces          20;
        startFace       1620;
        sampleMode      nearestPatchFace;
        sampleRegion    air;
        samplePatch     air_to_solid;
    }
)

// ************************************************************************* //
