/*--------------------------------*- C++ -*----------------------------------*\
| =========                 |                                                 |
| \\      /  F ield         | OpenFOAM: The Open Source CFD Toolbox           |
|  \\    /   O peration     | Version:  v2312                                 |
|   \\  /    A nd           | Website:  www.openfoam.com                      |
|    \\/     M anipulation  |                                                 |
\*---------------------------------------------------------------------------*/
FoamFile
{
    version     2.0;
    format      ascii;
    class       volScalarField;
    object      voltExtAmp;
}
// * * * * * * * * * * * * * * * * * * * * * * * * * * * * * * * * * * * * * //

dimensions      [1 2 -3 0 0 -1 0];

internalField   uniform 0;

voltage         uniform 1.0;

boundaryField
{    
    topBotBoundaries
    {
        type            zeroGradient;
    }

    inletBoundary
    {
        type            zeroGradient;
    }

    highVoltage
    {
        type            fixedValue;
        value           $voltage;
    }

    region0_to_dielectric
    {
        type            coupledPotential;
        value           $internalField;
        Tnbr            voltExtAmp;
    }

    frontBack
    {
        type            empty;
    }
}

// ************************************************************************* //
