/*--------------------------------*- C++ -*----------------------------------*\
  =========                 |
  \\      /  F ield         | OpenFOAM: The Open Source CFD Toolbox
   \\    /   O peration     | Website:  https://openfoam.org
    \\  /    A nd           | Version:  7
     \\/     M anipulation  |
\*---------------------------------------------------------------------------*/
FoamFile
{
    version     2.0;
    format      ascii;
    class       polyBoundaryMesh;
    location    "constant/dielectric/polyMesh";
    object      boundary;
}
// * * * * * * * * * * * * * * * * * * * * * * * * * * * * * * * * * * * * * //

8
(
    leftBoundary
    {
        type            patch;
        nFaces          0;
        startFace       9900;
    }
    rightBoundary
    {
        type            patch;
        nFaces          0;
        startFace       9900;
    }
    ground
    {
        type            wall;
        inGroups        List<word> 1(wall);
        nFaces          104;
        startFace       9900;
    }
    frontAndBack
    {
        type            empty;
        inGroups        List<word> 1(empty);
        nFaces          10054;
        startFace       10004;
    }
    highVoltage
    {
        type            wall;
        inGroups        List<word> 
2
(
wall
HVelectrodeBaffle
)
;
        nFaces          0;
        startFace       20058;
    }
    dielectric_to_region0
    {
        type            mappedWall;
        inGroups        List<word> 
2
(
wall
mappedPatch
)
;
        nFaces          97;
        startFace       20058;
        sampleMode      nearestPatchFace;
        sampleRegion    region0;
        samplePatch     region0_to_dielectric;
    }
    procBoundary3to0
    {
        type            processor;
        inGroups        List<word> 1(processor);
        nFaces          57;
        startFace       20155;
        matchTolerance  0.0001;
        transform       unknown;
        myProcNo        3;
        neighbProcNo    0;
    }
    procBoundary3to2
    {
        type            processor;
        inGroups        List<word> 1(processor);
        nFaces          50;
        startFace       20212;
        matchTolerance  0.0001;
        transform       unknown;
        myProcNo        3;
        neighbProcNo    2;
    }
)

// ************************************************************************* //
