/*--------------------------------*- C++ -*----------------------------------*\
  =========                 |
  \\      /  F ield         | OpenFOAM: The Open Source CFD Toolbox
   \\    /   O peration     | Website:  https://openfoam.org
    \\  /    A nd           | Version:  7
     \\/     M anipulation  |
\*---------------------------------------------------------------------------*/
FoamFile
{
    version     2.0;
    format      ascii;
    class       dictionary;
    location    "system";
    object      setFieldsDict;
}
// * * * * * * * * * * * * * * * * * * * * * * * * * * * * * * * * * * * * * //

defaultFieldValues
(
    volScalarFieldValue S 0.0
);

regions
(
    cylinderToCell
    {
        p1 (0.5 0.5 0.0);
        p2 (0.5 0.5 0.1);
        radius 0.125;
        fieldValues
        (
            volScalarFieldValue S 1000.0
        );
    }
);


// ************************************************************************* //
