/*--------------------------------*- C++ -*----------------------------------*\
  =========                 |
  \\      /  F ield         | OpenFOAM: The Open Source CFD Toolbox
   \\    /   O peration     | Website:  https://openfoam.org
    \\  /    A nd           | Version:  6
     \\/     M anipulation  |
\*---------------------------------------------------------------------------*/
FoamFile
{
    version     2.0;
    format      ascii;
    class       dictionary;
    object      topoSetDict;
}

// * * * * * * * * * * * * * * * * * * * * * * * * * * * * * * * * * * * * * //

actions
(
    // Air Region
    {
        name    airSet;
        type    cellSet;
        action  new;
        source  boxToCell;
        sourceInfo
        {
            box (0.0 0.0 0) (1.0 1.0 0.1);
        }
    }
    {
        name    air;
        type    cellZoneSet;
        action  new;
        source  setToCellZone;
        sourceInfo
        {
            set airSet;
        }
    }


    // Solid Region
    {
        name    solidSet;
        type    cellSet;
        action  new;
        source  boxToCell;
        sourceInfo
        {
            box (1.0 0.0 0) (2.0 1.0 0.1);
        }
    }
    {
        name    solid;
        type    cellZoneSet;
        action  new;
        source  setToCellZone;
        sourceInfo
        {
            set solidSet;
        }
    }
);

// ************************************************************************* //
