/*--------------------------------*- C++ -*----------------------------------*\
  =========                 |
  \\      /  F ield         | OpenFOAM: The Open Source CFD Toolbox
   \\    /   O peration     | Website:  https://openfoam.org
    \\  /    A nd           | Version:  7
     \\/     M anipulation  |
\*---------------------------------------------------------------------------*/
FoamFile
{
    version     2.0;
    format      ascii;
    class       polyBoundaryMesh;
    location    "constant/insulator/polyMesh";
    object      boundary;
}
// * * * * * * * * * * * * * * * * * * * * * * * * * * * * * * * * * * * * * //

6
(
    leftBoundary
    {
        type            wall;
        inGroups        List<word> 1(wall);
        nFaces          61;
        startFace       709379;
    }
    rightBoundary
    {
        type            wall;
        inGroups        List<word> 1(wall);
        nFaces          61;
        startFace       709440;
    }
    ground
    {
        type            wall;
        inGroups        List<word> 1(wall);
        nFaces          1444;
        startFace       709501;
    }
    bottomBoundary
    {
        type            wall;
        inGroups        List<word> 1(wall);
        nFaces          1386;
        startFace       710945;
    }
    frontAndBack
    {
        type            empty;
        inGroups        List<word> 1(empty);
        nFaces          710756;
        startFace       712331;
    }
    insulator_to_dielectric
    {
        type            mappedWall;
        inGroups        List<word> 1(wall);
        nFaces          2439;
        startFace       1423087;
        sampleMode      nearestPatchFace;
        sampleRegion    dielectric;
        samplePatch     dielectric_to_insulator;
    }
)

// ************************************************************************* //
