/*--------------------------------*- C++ -*----------------------------------*\
  =========                 |
  \\      /  F ield         | OpenFOAM: The Open Source CFD Toolbox
   \\    /   O peration     | Website:  https://openfoam.org
    \\  /    A nd           | Version:  7
     \\/     M anipulation  |
\*---------------------------------------------------------------------------*/
FoamFile
{
    version     2.0;
    format      ascii;
    class       polyBoundaryMesh;
    location    "constant/insulator/polyMesh";
    object      boundary;
}
// * * * * * * * * * * * * * * * * * * * * * * * * * * * * * * * * * * * * * //

6
(
    leftBoundary
    {
        type            wall;
        inGroups        List<word> 1(wall);
        nFaces          54;
        startFace       558938;
    }
    rightBoundary
    {
        type            wall;
        inGroups        List<word> 1(wall);
        nFaces          54;
        startFace       558992;
    }
    ground
    {
        type            wall;
        inGroups        List<word> 1(wall);
        nFaces          1148;
        startFace       559046;
    }
    bottomBoundary
    {
        type            wall;
        inGroups        List<word> 1(wall);
        nFaces          2428;
        startFace       560194;
    }
    frontAndBack
    {
        type            empty;
        inGroups        List<word> 1(empty);
        nFaces          561360;
        startFace       562622;
    }
    insulator_to_dielectric
    {
        type            mappedWall;
        inGroups        List<word> 1(wall);
        nFaces          2808;
        startFace       1123982;
        sampleMode      nearestPatchFace;
        sampleRegion    dielectric;
        samplePatch     dielectric_to_insulator;
    }
)

// ************************************************************************* //
