/*--------------------------------*- C++ -*----------------------------------*\
| =========                 |                                                 |
| \\      /  F ield         | OpenFOAM: The Open Source CFD Toolbox           |
|  \\    /   O peration     | Version:  v2406                                 |
|   \\  /    A nd           | Website:  www.openfoam.com                      |
|    \\/     M anipulation  |                                                 |
\*---------------------------------------------------------------------------*/
FoamFile
{
    version     2.0;
    format      ascii;
    class       volScalarField;
    object      voltEextMag;
}
// * * * * * * * * * * * * * * * * * * * * * * * * * * * * * * * * * * * * * //

dimensions      [1 2 -3 0 0 -1 0];

internalField   uniform 0;

boundaryField
{
    leftBoundary
    {
        type            zeroGradient;
    }

    rightBoundary
    {
        type            zeroGradient;
    }

    bottomBoundary
    {
        type            zeroGradient;
    }

    ground
    {
        type            fixedValue;
        value           uniform 0;
    }

    encapsulator_to_dielectric
    {
        type            compressible::turbulentTemperatureRadCoupledMixed;
        value           $internalField;
        Tnbr            voltDextMag;
        kappaMethod     lookup;
        kappa           epsilonE;
    }

    frontAndBack
    {
        type            empty;
    }
}

// ************************************************************************* //
