/*--------------------------------*- C++ -*----------------------------------*\
  =========                 |
  \\      /  F ield         | OpenFOAM: The Open Source CFD Toolbox
   \\    /   O peration     | Website:  https://openfoam.org
    \\  /    A nd           | Version:  7
     \\/     M anipulation  |
\*---------------------------------------------------------------------------*/
FoamFile
{
    version     2.0;
    format      ascii;
    class       dictionary;
    location    "system";
    object      setFieldsDict;
}
// * * * * * * * * * * * * * * * * * * * * * * * * * * * * * * * * * * * * * //

defaultFieldValues
(
    volScalarFieldValue rhoq 0.0
);

regions
(
    boxToCell
    {
        box (0.0 0.0 -1.0) (19.0e-3 80.0e-6 1.0);
        fieldValues
        (
            volScalarFieldValue rhoq 0.1
        );
    }
);


// ************************************************************************* //
