/*--------------------------------*- C++ -*----------------------------------*\
  =========                 |
  \\      /  F ield         | OpenFOAM: The Open Source CFD Toolbox
   \\    /   O peration     | Website:  https://openfoam.org
    \\  /    A nd           | Version:  7
     \\/     M anipulation  |
\*---------------------------------------------------------------------------*/
FoamFile
{
    version     2.0;
    format      ascii;
    class       polyBoundaryMesh;
    location    "constant/air/polyMesh";
    object      boundary;
}
// * * * * * * * * * * * * * * * * * * * * * * * * * * * * * * * * * * * * * //

5
(
    leftPlateAir
    {
        type            patch;
        nFaces          2400;
        startFace       1040800;
    }
    airOuter
    {
        type            patch;
        nFaces          12000;
        startFace       1043200;
    }
    electrode
    {
        type            patch;
        nFaces          2400;
        startFace       1055200;
    }
    rightPlateAir
    {
        type            patch;
        nFaces          2400;
        startFace       1057600;
    }
    air_to_dielectric
    {
        type            mappedWall;
        inGroups        List<word> 1(wall);
        nFaces          11200;
        startFace       1060000;
        sampleMode      nearestPatchFace;
        sampleRegion    dielectric;
        samplePatch     dielectric_to_air;
    }
)

// ************************************************************************* //
