/*--------------------------------*- C++ -*----------------------------------*\
  =========                 |
  \\      /  F ield         | OpenFOAM: The Open Source CFD Toolbox
   \\    /   O peration     | Website:  https://openfoam.org
    \\  /    A nd           | Version:  7
     \\/     M anipulation  |
\*---------------------------------------------------------------------------*/
FoamFile
{
    version     2.0;
    format      ascii;
    class       volScalarField;
    location    "0/insulator";
    object      epsilonI;
}
// * * * * * * * * * * * * * * * * * * * * * * * * * * * * * * * * * * * * * //

dimensions      [0 0 0 0 0 0 0];

internalField   uniform 3.6;

boundaryField
{
    leftBoundary
    {
        type            calculated;
        value           uniform 3.6;
    }
    rightBoundary
    {
        type            calculated;
        value           uniform 3.6;
    }
    ground
    {
        type            calculated;
        value           uniform 3.6;
    }
    bottomBoundary
    {
        type            calculated;
        value           uniform 3.6;
    }
    frontAndBack
    {
        type            empty;
    }
    insulator_to_dielectric
    {
        type            calculated;
        value           uniform 3.6;
    }
}


// ************************************************************************* //
