/*--------------------------------*- C++ -*----------------------------------*\
| =========                 |                                                 |
| \\      /  F ield         | OpenFOAM: The Open Source CFD Toolbox           |
|  \\    /   O peration     | Version:  2.1.x                                 |
|   \\  /    A nd           | Web:      www.OpenFOAM.org                      |
|    \\/     M anipulation  |                                                 |
\*---------------------------------------------------------------------------*/
FoamFile
{
    version     2.0;
    format      ascii;
    class       dictionary;
    object      changeDictionaryDict;
}
// * * * * * * * * * * * * * * * * * * * * * * * * * * * * * * * * * * * * * //

phiElDiel
{
    boundaryField
    {
    anode
        {
            type            uniformFixedValue;
	    uniformValue
	    {
	    	type	    sine;
		frequency   5000;
		amplitude   20000;
		scale       1;
		level       1;
	    }
        }
    Dielectric_to_Air
    {
        type            compressible::turbulentTemperatureCoupledBaffleMixed;
        value           $internalField;
        Tnbr            phiEl;
        kappaMethod     lookup;
        kappa		k_Diel;
    }
    }
}







// ************************************************************************* //
