/*--------------------------------*- C++ -*----------------------------------*\
  =========                 |
  \\      /  F ield         | OpenFOAM: The Open Source CFD Toolbox
   \\    /   O peration     | Website:  https://openfoam.org
    \\  /    A nd           | Version:  7
     \\/     M anipulation  |
\*---------------------------------------------------------------------------*/
FoamFile
{
    version     2.0;
    format      ascii;
    class       volScalarField;
    location    "0/dielectric";
    object      voltDext;
}
// * * * * * * * * * * * * * * * * * * * * * * * * * * * * * * * * * * * * * //

dimensions      [1 2 -3 0 0 -1 0];

internalField   uniform 0;

boundaryField
{
    leftBoundary
    {
        type            zeroGradient;
    }
    rightBoundary
    {
        type            zeroGradient;
    }
    ground
    {
        type            fixedValue;
        value           uniform 0;
    }
    frontAndBack
    {
        type            empty;
    }
    highVoltage
    {
        type            fixedValue;
        value           uniform 1200;
    }
    dielectric_to_region0
    {
        type            compressible::turbulentTemperatureCoupledBaffleMixed;
        Tnbr            voltAext;
        kappaMethod     lookup;
        kappa           epsilonD;
        value           uniform 0;
    }
    procBoundary2to3
    {
        type            processor;
        value           uniform 0;
    }
}


// ************************************************************************* //
