/*--------------------------------*- C++ -*----------------------------------*\
| =========                 |                                                 |
| \\      /  F ield         | OpenFOAM: The Open Source CFD Toolbox           |
|  \\    /   O peration     | Version:  2406                                  |
|   \\  /    A nd           | Website:  www.openfoam.com                      |
|    \\/     M anipulation  |                                                 |
\*---------------------------------------------------------------------------*/
FoamFile
{
    version     2.0;
    format      ascii;
    class       dictionary;
    object      reactionsDict;
}
// * * * * * * * * * * * * * * * * * * * * * * * * * * * * * * * * * * * * * //

species
(
    e
    He
    He_plus
    He_m
    He2_plus
    He2_m
    N2
    N2_plus
    N2_C3Pu
    N2_A3Su
    O2
    O
    O2_minus
    O2_plus
    O_1D
    O2_a1
);

inertSpecie He;

reactions
{
    R1
    {
        reaction    "e + He = e + He_m";
        type        bolsig;
    }

    R2
    {
        reaction    "e + He = 2 e + He_plus";
        type        bolsig;
    }

    R3
    {
        reaction    "e + N2 = e + N2_C3Pu";
        type        bolsig;
    }

    R4
    {
        reaction    "e + N2 = e + N2_A3Su";
        type        bolsig;
    }

    R5
    {
        reaction    "e + N2 = 2 e + N2_plus";
        type        bolsig;
    }

    R6
    {
        reaction    "e + O2 = e + O2_a1";
        type        bolsig;
    }

    R7
    {
        reaction    "e + O2 = e + 2 O";
        type        bolsig;
    }

    R8
    {
        reaction    "e + O2 = e + O + O_1D";
        type        bolsig;
    }

    R9
    {
        reaction    "e + O2 = O2_minus";
        type        bolsig3BodyReaction;
    }

    R10
    {
        reaction    "e + O2 = 2 e + O2_plus";
        type        bolsig;
    }

    R11
    {
        reaction    "e + He_m = 2 e + He_plus";
        type        ArrheniusLaw;
        field       TEle;
        A           4.661e-16;
        B           0.6;
        C           -4.78;
    }

    R12
    {
        reaction    "e + He_plus = He_m";
        type        ArrheniusLaw;
        field       TEle;
        A           6.76e-19;
        B           -0.5;
        C           0;
    }

    R13
    {
        reaction    "e + He2_plus = He_m + He";
        type        ArrheniusLaw;
        field       TEle;
        A           5.386e-13;
        B           -0.5;
        C           0;
    }

    R14
    {
        reaction    "e + He_plus + He = He_m + He";
        type        constantRate;
        value       6.66e-42;
    }

    R15
    {
        reaction    "e + He2_plus + He = He_m + 2 He";
        type        constantRate;
        value       3.5e-39;
    }

    R16
    {
        reaction    "e + N2 + N2_plus = 2 N2";
        type        ArrheniusLaw;
        field       TEle;
        A           4.184e-44;
        B           -2.5;
        C           0;
    }

    R17
    {
        reaction    "2 e + N2_plus = e + N2";
        type        ArrheniusLaw;
        field       TEle;
        A           3.165e-30;
        B           -0.8;
        C           0;
    }

    R18
    {
        reaction    "e + O2_plus = 2 O";
        type        ArrheniusLaw;
        field       TEle;
        A           1.2e-14;
        B           -0.7;
        C           0;
    }

    R19
    {
        reaction    "2 He_m = e + He_plus + He";
        type        constantRate;
        value       4.5e-16;
    }

    R20
    {
        reaction    "He_m + 2 He = He2_m + He";
        type        constantRate;
        value       1.3e-45;
    }

    R21
    {
        reaction    "He_plus + 2 He = He2_plus + He";
        type        constantRate;
        value       1.0e-43;
    }

    R22
    {
        reaction    "O2_minus + O2_plus = 2 O2";
        type        constantRate;
        value       2.0e-13;
    }

    R23
    {
        reaction    "O2_minus + O2_plus + He = 2 O2 + He";
        type        constantRate;
        value       2.0e-37;
    }

    R24
    {
        reaction    "O2_minus + O2_plus + N2 = 2 O2 + N2";
        type        constantRate;
        value       2.0e-37;
    }

    R25
    {
        reaction    "O2_minus + O2_plus + O2 = 2 O2 + O2";
        type        constantRate;
        value       2.0e-37;
    }

    R26
    {
        reaction    "He_plus + N2 = He + N2_plus";
        type        constantRate;
        value       5.0e-16;
    }

    R27
    {
        reaction    "He2_plus + N2 = 2 He + N2_plus";
        type        constantRate;
        value       5.0e-16;
    }

    R28
    {
        reaction    "He_m + N2 = e + He + N2_plus";
        type        constantRate;
        value       7.0e-17;
    }

    R29
    {
        reaction    "He_m + O2 = e + He + O2_plus";
        type        constantRate;
        value       2.4e-16;
    }

    R30
    {
        reaction    "He2_m + N2 = e + 2 He + N2_plus";
        type        constantRate;
        value       7.0e-17;
    }

    R31
    {
        reaction    "He2_m + O2 = e + 2 He + O2_plus";
        type        constantRate;
        value       3.6e-16;
    }

    R32
    {
        reaction    "N2_C3Pu = N2";
        type        constantRate;
        value       2.45e+7;
    }
}
