/*--------------------------------*- C++ -*----------------------------------*\
  =========                 |
  \\      /  F ield         | OpenFOAM: The Open Source CFD Toolbox
   \\    /   O peration     | Website:  https://openfoam.org
    \\  /    A nd           | Version:  7
     \\/     M anipulation  |
\*---------------------------------------------------------------------------*/
FoamFile
{
    version     2.0;
    format      ascii;
    class       dictionary;
    location    "constant";
    object      physicalProperties;
}
// * * * * * * * * * * * * * * * * * * * * * * * * * * * * * * * * * * * * * //

erD                 erD [0 0 0 0 0 0 0] 2.9;

epsilon0            epsilon0 [-1 -3 4 0 0 2 0] 8.85419e-12;

e                   e [0 0 1 0 0 1 0] 1.60217663e-19;

De                  De [0 2 -1 0 0 1 0] 1.7;

Di                  Di [0 2 -1 0 0 1 0] 2.3e-6;

mue                 mue [-1 0 2 0 0 1 0] 1.7;

mui                 mui [-1 0 2 0 0 1 0] 2.3e-4;

r                   r [0 3 -1 0 0 1 0] 1.0e-13;

alpha               alpha [0 -1 0 0 0 0 0] 1550.0;


// ************************************************************************* //
