/*--------------------------------*- C++ -*----------------------------------*\
| =========                 |                                                 |
| \\      /  F ield         | OpenFOAM: The Open Source CFD Toolbox           |
|  \\    /   O peration     | Version:  2406                                  |
|   \\  /    A nd           | Website:  www.openfoam.com                      |
|    \\/     M anipulation  |                                                 |
\*---------------------------------------------------------------------------*/
FoamFile
{
    version     2.0;
    format      ascii;
    arch        "LSB;label=32;scalar=64";
    class       polyBoundaryMesh;
    location    "constant/region0/polyMesh";
    object      boundary;
}
// * * * * * * * * * * * * * * * * * * * * * * * * * * * * * * * * * * * * * //

6
(
    upperBoundary
    {
        type            wall;
        inGroups        1(wall);
        nFaces          434;
        startFace       122500;
    }
    leftBoundary
    {
        type            wall;
        inGroups        1(wall);
        nFaces          142;
        startFace       122934;
    }
    rightBoundary
    {
        type            wall;
        inGroups        1(wall);
        nFaces          142;
        startFace       123076;
    }
    highVoltage
    {
        type            wall;
        inGroups        1(wall);
        nFaces          30;
        startFace       123218;
    }
    frontAndBack
    {
        type            empty;
        inGroups        1(empty);
        nFaces          123080;
        startFace       123248;
    }
    region0_to_dielectric
    {
        type            mappedWall;
        inGroups        1(wall);
        nFaces          412;
        startFace       246328;
        sampleMode      nearestPatchFace;
        sampleRegion    dielectric;
        samplePatch     dielectric_to_region0;
    }
)

// ************************************************************************* //
