/*--------------------------------*- C++ -*----------------------------------*\
  =========                 |
  \\      /  F ield         | OpenFOAM: The Open Source CFD Toolbox
   \\    /   O peration     | Website:  https://openfoam.org
    \\  /    A nd           | Version:  7
     \\/     M anipulation  |
\*---------------------------------------------------------------------------*/
FoamFile
{
    version     2.0;
    format      ascii;
    class       polyBoundaryMesh;
    location    "constant/polyMesh";
    object      boundary;
}
// * * * * * * * * * * * * * * * * * * * * * * * * * * * * * * * * * * * * * //

3
(
    leftPlateHe
    {
        type            patch;
        nFaces          1200;
        startFace       532800;
    }
    rightPlateHe
    {
        type            patch;
        nFaces          1200;
        startFace       534000;
    }
    region0_to_dielectric
    {
        type            mappedWall;
        inGroups        List<word> 1(wall);
        nFaces          12000;
        startFace       535200;
        sampleMode      nearestPatchFace;
        sampleRegion    dielectric;
        samplePatch     dielectric_to_region0;
    }
)

// ************************************************************************* //
