/*--------------------------------*- C++ -*----------------------------------*\
  =========                 |
  \\      /  F ield         | OpenFOAM: The Open Source CFD Toolbox
   \\    /   O peration     | Website:  https://openfoam.org
    \\  /    A nd           | Version:  6
     \\/     M anipulation  |
\*---------------------------------------------------------------------------*/
FoamFile
{
    version     2.0;
    format      ascii;
    class       dictionary;
    object      topoSetDict;
}

// * * * * * * * * * * * * * * * * * * * * * * * * * * * * * * * * * * * * * //

actions
(
    // High Voltage electrode
    {
        name    HVelectrodeSet;
        type    faceSet;
        action  new;
        source  boxToFace;
        sourceInfo
        {
            box (-0.005 0.0 0) (0.0 0.0 0.05);
        }
    }
    {
        name    HVelectrodeZone;
        type    faceZoneSet;
        action  new;
        source  setToFaceZone;
        sourceInfo
        {
            faceSet HVelectrodeSet;
        }
    }

    // Grounded Electrode
    {
        name    GRelectrodeSet;
        type    faceSet;
        action  new;
        source  boxToFace;
        sourceInfo
        {
            box (0.003 -0.425001e-3 0) (0.019 -0.424999E-3 0.05);
        }
    }
    {
        name    GRelectrodeZone;
        type    faceZoneSet;
        action  new;
        source  setToFaceZone;
        sourceInfo
        {
            faceSet GRelectrodeSet;
        }
    }

    // // Dielectric Zone
    // {
    //     name    dielSet;
    //     type    cellSet;
    //     action  new;
    //     source  boxToCell;
    //     sourceInfo
    //     {
    //         box (-10.0 -0.002 0) (10.0 0.0 0.05);
    //         // box (-10.0 -10.0 0) (10.0 0.0 0.05);
    //     }
    // }
    // {
    //     name    dielectric;
    //     type    cellZoneSet;
    //     action  new;
    //     source  setToCellZone;
    //     sourceInfo
    //     {
    //         set dielSet;
    //     }
    // }

    // // Insulator Zone
    // {
    //     name    insSet;
    //     type    cellSet;
    //     action  new;
    //     source  boxToCell;
    //     sourceInfo
    //     {
    //         box (-10.0 -10.0 0) (10.0 -0.002 0.05);
    //     }
    // }
    // {
    //     name    insulator;
    //     type    cellZoneSet;
    //     action  new;
    //     source  setToCellZone;
    //     sourceInfo
    //     {
    //         set insSet;
    //     }
    // }
);

// ************************************************************************* //
