/*--------------------------------*- C++ -*----------------------------------*\
| =========                 |                                                 |
| \\      /  F ield         | OpenFOAM: The Open Source CFD Toolbox           |
|  \\    /   O peration     | Version:  v2312                                 |
|   \\  /    A nd           | Website:  www.openfoam.com                      |
|    \\/     M anipulation  |                                                 |
\*---------------------------------------------------------------------------*/
FoamFile
{
    version     2.0;
    format      ascii;
    class       dictionary;
    object      physicalProperties;
}
// * * * * * * * * * * * * * * * * * * * * * * * * * * * * * * * * * * * * * //

// Properties
pGasValue            101325;

TGasValue            300;

rhoGasValue          1.225;

TEleValue            10000;


// Voltage characteristics
voltageType     dc;

peakVoltage     1.0e3;
/*  

frequency       1e3;

riseTime        1.0e-4;

plateauWidth    2.0e-4;

startPoint      0.5e-4;
*/

// ************************************************************************* //