/*--------------------------------*- C++ -*----------------------------------*\
  =========                 |
  \\      /  F ield         | OpenFOAM: The Open Source CFD Toolbox
   \\    /   O peration     | Website:  https://openfoam.org
    \\  /    A nd           | Version:  7  
     \\/     M anipulation  |
\*---------------------------------------------------------------------------*/
FoamFile
{
    version     2.0;
    format      ascii;
    class       volScalarField;
    object      voltI;
}
// * * * * * * * * * * * * * * * * * * * * * * * * * * * * * * * * * * * * * //

dimensions      [1 2 -3 0 0 -1 0];

internalField   uniform 0;

boundaryField
{
    leftBoundary
    {
        type            fixedValue;
        value           uniform 0;
    }

    rightBoundary
    {
        type            fixedValue;
        value           uniform 0;
    }

    bottomBoundary
    {
        type            fixedValue;
        value           uniform 0;
    }

    ground
    {
        type            fixedValue;
        value           uniform 0;
    }

    insulator_to_dielectric
    {
        type            compressible::turbulentTemperatureCoupledBaffleMixed;
        value           $internalField;
        Tnbr            voltD;
        kappaMethod     lookup;
        kappa           epsilonI;
    }

    frontAndBack
    {
        type            empty;
    }
}

// ************************************************************************* //
