/*--------------------------------*- C++ -*----------------------------------*\
  =========                 |
  \\      /  F ield         | OpenFOAM: The Open Source CFD Toolbox
   \\    /   O peration     | Website:  https://openfoam.org
    \\  /    A nd           | Version:  7
     \\/     M anipulation  |
\*---------------------------------------------------------------------------*/
FoamFile
{
    version     2.0;
    format      ascii;
    class       polyBoundaryMesh;
    location    "constant/polyMesh";
    object      boundary;
}
// * * * * * * * * * * * * * * * * * * * * * * * * * * * * * * * * * * * * * //

7
(
    upperBoundary
    {
        type            wall;
        inGroups        List<word> 1(wall);
        nFaces          483;
        startFace       286740;
    }
    leftBoundary
    {
        type            wall;
        inGroups        List<word> 1(wall);
        nFaces          298;
        startFace       287223;
    }
    rightBoundary
    {
        type            wall;
        inGroups        List<word> 1(wall);
        nFaces          298;
        startFace       287521;
    }
    highVoltage
    {
        type            wall;
        inGroups        List<word> 1(wall);
        nFaces          60;
        startFace       287819;
    }
    ground
    {
        type            wall;
        inGroups        List<word> 1(wall);
        nFaces          174;
        startFace       287879;
    }
    bottomBoundary
    {
        type            wall;
        inGroups        List<word> 1(wall);
        nFaces          483;
        startFace       288053;
    }
    frontAndBack
    {
        type            empty;
        inGroups        List<word> 1(empty);
        nFaces          287638;
        startFace       288536;
    }
)

// ************************************************************************* //
